11 - preprocessed
  PyMOL2.4          3D                             0

 24 26  0  0  0  0  0  0  0  0999 V2000
   42.9850   37.7650   64.8400 N   0  0  0  0  0  0  0  0  0  0  0  0
   43.8230   37.1810   63.9350 C   0  0  0  0  0  0  0  0  0  0  0  0
   45.0960   36.6190   64.2250 C   0  0  0  0  0  0  0  0  0  0  0  0
   45.4800   36.6500   65.5900 C   0  0  0  0  0  0  0  0  0  0  0  0
   44.6450   37.2120   66.4930 N   0  0  0  0  0  0  0  0  0  0  0  0
   43.4900   37.7350   66.0760 C   0  0  0  0  0  0  0  0  0  0  0  0
   45.6810   36.1230   63.0720 N   0  0  0  0  0  0  0  0  0  0  0  0
   44.7900   36.3570   62.1420 C   0  0  0  0  0  0  0  0  0  0  0  0
   43.6370   37.0020   62.5740 N   0  0  0  0  0  0  0  0  0  0  0  0
   45.0510   35.9660   60.7970 N   0  0  0  0  0  0  0  0  0  0  0  0
   44.0830   35.7690   59.8590 N   0  0  0  0  0  0  0  0  0  0  0  0
   44.7560   35.4090   58.7980 C   0  0  0  0  0  0  0  0  0  0  0  0
   46.1310   35.3770   59.1020 C   0  0  0  0  0  0  0  0  0  0  0  0
   46.3150   35.7210   60.3490 N   0  0  0  0  0  0  0  0  0  0  0  0
   46.6280   36.1320   66.0270 N   0  0  0  0  0  0  0  0  0  0  0  0
   42.4730   37.4310   61.8160 C   0  0  0  0  0  0  0  0  0  0  0  0
   42.8780   38.1510   66.8580 H   0  0  0  0  0  0  0  0  0  0  0  0
   44.2490   35.1540   57.8780 H   0  0  0  0  0  0  0  0  0  0  0  0
   46.9590   35.1090   58.4680 H   0  0  0  0  0  0  0  0  0  0  0  0
   47.3050   35.7600   65.3680 H   0  0  0  0  0  0  0  0  0  0  0  0
   46.8770   36.2200   67.0060 H   0  0  0  0  0  0  0  0  0  0  0  0
   41.6500   37.6770   62.4830 H   0  0  0  0  0  0  0  0  0  0  0  0
   42.7250   38.3050   61.2150 H   0  0  0  0  0  0  0  0  0  0  0  0
   42.1160   36.6310   61.1710 H   0  0  0  0  0  0  0  0  0  0  0  0
  1  2  1  0  0  0  0
  1  6  2  0  0  0  0
  2  3  2  0  0  0  0
  2  9  1  0  0  0  0
  3  4  1  0  0  0  0
  3  7  1  0  0  0  0
  4  5  2  0  0  0  0
  4 15  1  0  0  0  0
  5  6  1  0  0  0  0
  6 17  1  0  0  0  0
  7  8  2  0  0  0  0
  8  9  1  0  0  0  0
  8 10  1  0  0  0  0
  9 16  1  0  0  0  0
 10 11  1  0  0  0  0
 10 14  1  0  0  0  0
 11 12  2  0  0  0  0
 12 13  1  0  0  0  0
 12 18  1  0  0  0  0
 13 14  2  0  0  0  0
 13 19  1  0  0  0  0
 15 20  1  0  0  0  0
 15 21  1  0  0  0  0
 16 22  1  0  0  0  0
 16 23  1  0  0  0  0
 16 24  1  0  0  0  0
M  END
$$$$
