25f - preprocessed
  PyMOL2.4          3D                             0

 33 35  0  0  0  0  0  0  0  0999 V2000
   42.9970   37.7640   64.8570 N   0  0  0  0  0  0  0  0  0  0  0  0
   43.8310   37.1820   63.9410 C   0  0  0  0  0  0  0  0  0  0  0  0
   45.1020   36.6120   64.2190 C   0  0  0  0  0  0  0  0  0  0  0  0
   45.4960   36.6320   65.5760 C   0  0  0  0  0  0  0  0  0  0  0  0
   44.6650   37.1730   66.4880 N   0  0  0  0  0  0  0  0  0  0  0  0
   43.5000   37.6890   66.0950 C   0  0  0  0  0  0  0  0  0  0  0  0
   45.6870   36.1210   63.0640 N   0  0  0  0  0  0  0  0  0  0  0  0
   44.7900   36.3540   62.1410 C   0  0  0  0  0  0  0  0  0  0  0  0
   43.6370   37.0000   62.5780 N   0  0  0  0  0  0  0  0  0  0  0  0
   45.0520   35.9610   60.7950 N   0  0  0  0  0  0  0  0  0  0  0  0
   44.0810   35.7400   59.8670 N   0  0  0  0  0  0  0  0  0  0  0  0
   44.7540   35.3830   58.8030 C   0  0  0  0  0  0  0  0  0  0  0  0
   46.1320   35.3780   59.0980 C   0  0  0  0  0  0  0  0  0  0  0  0
   46.3180   35.7350   60.3410 N   0  0  0  0  0  0  0  0  0  0  0  0
   46.6380   36.1120   66.0180 N   0  0  0  0  0  0  0  0  0  0  0  0
   42.4710   37.4260   61.8200 C   0  0  0  0  0  0  0  0  0  0  0  0
   42.6470   38.2330   67.2230 C   0  0  0  0  0  0  0  0  0  0  0  0
   43.1210   39.6050   67.7260 C   0  0  0  0  0  0  0  0  0  0  0  0
   42.6890   39.8510   69.1760 C   0  0  0  0  0  0  0  0  0  0  0  0
   44.2470   35.1110   57.8880 H   0  0  0  0  0  0  0  0  0  0  0  0
   46.9610   35.1160   58.4610 H   0  0  0  0  0  0  0  0  0  0  0  0
   47.3160   35.7390   65.3590 H   0  0  0  0  0  0  0  0  0  0  0  0
   46.8870   36.2050   66.9980 H   0  0  0  0  0  0  0  0  0  0  0  0
   42.1220   36.6350   61.1600 H   0  0  0  0  0  0  0  0  0  0  0  0
   41.6440   37.6500   62.4910 H   0  0  0  0  0  0  0  0  0  0  0  0
   42.7160   38.3140   61.2370 H   0  0  0  0  0  0  0  0  0  0  0  0
   42.6940   37.5130   68.0410 H   0  0  0  0  0  0  0  0  0  0  0  0
   41.5990   38.2890   66.9220 H   0  0  0  0  0  0  0  0  0  0  0  0
   42.7480   40.3930   67.0700 H   0  0  0  0  0  0  0  0  0  0  0  0
   44.2090   39.6630   67.6900 H   0  0  0  0  0  0  0  0  0  0  0  0
   43.0270   40.8250   69.5340 H   0  0  0  0  0  0  0  0  0  0  0  0
   43.1020   39.0910   69.8420 H   0  0  0  0  0  0  0  0  0  0  0  0
   41.6030   39.8130   69.2660 H   0  0  0  0  0  0  0  0  0  0  0  0
  1  2  1  0  0  0  0
  1  6  2  0  0  0  0
  2  3  2  0  0  0  0
  2  9  1  0  0  0  0
  3  4  1  0  0  0  0
  3  7  1  0  0  0  0
  4  5  2  0  0  0  0
  4 15  1  0  0  0  0
  5  6  1  0  0  0  0
  6 17  1  0  0  0  0
  7  8  2  0  0  0  0
  8  9  1  0  0  0  0
  8 10  1  0  0  0  0
  9 16  1  0  0  0  0
 10 11  1  0  0  0  0
 10 14  1  0  0  0  0
 11 12  2  0  0  0  0
 12 13  1  0  0  0  0
 12 20  1  0  0  0  0
 13 14  2  0  0  0  0
 13 21  1  0  0  0  0
 15 22  1  0  0  0  0
 15 23  1  0  0  0  0
 16 24  1  0  0  0  0
 16 25  1  0  0  0  0
 16 26  1  0  0  0  0
 17 18  1  0  0  0  0
 17 27  1  0  0  0  0
 17 28  1  0  0  0  0
 18 19  1  0  0  0  0
 18 29  1  0  0  0  0
 18 30  1  0  0  0  0
 19 31  1  0  0  0  0
 19 32  1  0  0  0  0
 19 33  1  0  0  0  0
M  END
$$$$
