32 - preprocessed
  PyMOL2.4          3D                             0

 25 27  0  0  0  0  0  0  0  0999 V2000
   43.0250   37.7960   64.9160 C   0  0  0  0  0  0  0  0  0  0  0  0
   43.7960   37.1920   63.9100 C   0  0  0  0  0  0  0  0  0  0  0  0
   45.0570   36.6210   64.2250 C   0  0  0  0  0  0  0  0  0  0  0  0
   45.4860   36.6720   65.5710 C   0  0  0  0  0  0  0  0  0  0  0  0
   44.7340   37.2590   66.5350 N   0  0  0  0  0  0  0  0  0  0  0  0
   43.5440   37.8060   66.2170 C   0  0  0  0  0  0  0  0  0  0  0  0
   45.6700   36.1030   63.1030 N   0  0  0  0  0  0  0  0  0  0  0  0
   44.7620   36.3480   62.1440 C   0  0  0  0  0  0  0  0  0  0  0  0
   43.6280   36.9870   62.5430 N   0  0  0  0  0  0  0  0  0  0  0  0
   45.0260   35.9550   60.7960 N   0  0  0  0  0  0  0  0  0  0  0  0
   44.0720   35.7750   59.8520 N   0  0  0  0  0  0  0  0  0  0  0  0
   44.7460   35.4080   58.7930 C   0  0  0  0  0  0  0  0  0  0  0  0
   46.1200   35.3710   59.1000 C   0  0  0  0  0  0  0  0  0  0  0  0
   46.3010   35.6960   60.3540 N   0  0  0  0  0  0  0  0  0  0  0  0
   46.6920   36.1250   65.9850 N   0  0  0  0  0  0  0  0  0  0  0  0
   42.4700   37.4090   61.7700 C   0  0  0  0  0  0  0  0  0  0  0  0
   42.0560   38.2170   64.6980 H   0  0  0  0  0  0  0  0  0  0  0  0
   42.9800   38.2540   67.0200 H   0  0  0  0  0  0  0  0  0  0  0  0
   44.2570   35.1620   57.8530 H   0  0  0  0  0  0  0  0  0  0  0  0
   46.9490   35.0750   58.4750 H   0  0  0  0  0  0  0  0  0  0  0  0
   47.4100   35.8280   65.3130 H   0  0  0  0  0  0  0  0  0  0  0  0
   46.9930   36.2360   66.9530 H   0  0  0  0  0  0  0  0  0  0  0  0
   41.6900   37.7900   62.4280 H   0  0  0  0  0  0  0  0  0  0  0  0
   42.7680   38.2050   61.0810 H   0  0  0  0  0  0  0  0  0  0  0  0
   42.0430   36.5700   61.2110 H   0  0  0  0  0  0  0  0  0  0  0  0
  1  2  1  0  0  0  0
  1  6  2  0  0  0  0
  1 17  1  0  0  0  0
  2  3  2  0  0  0  0
  2  9  1  0  0  0  0
  3  4  1  0  0  0  0
  3  7  1  0  0  0  0
  4  5  2  0  0  0  0
  4 15  1  0  0  0  0
  5  6  1  0  0  0  0
  6 18  1  0  0  0  0
  7  8  2  0  0  0  0
  8  9  1  0  0  0  0
  8 10  1  0  0  0  0
  9 16  1  0  0  0  0
 10 11  1  0  0  0  0
 10 14  1  0  0  0  0
 11 12  2  0  0  0  0
 12 13  1  0  0  0  0
 12 19  1  0  0  0  0
 13 14  2  0  0  0  0
 13 20  1  0  0  0  0
 15 21  1  0  0  0  0
 15 22  1  0  0  0  0
 16 23  1  0  0  0  0
 16 24  1  0  0  0  0
 16 25  1  0  0  0  0
M  END
$$$$
