4h
  PyMOL2.6          3D                             0

 36 38  0  0  0  0  0  0  0  0999 V2000
   31.2608   35.9757   76.5024 N   0  0  0  0  0  0  0  0  0  0  0  0
   30.3587   35.3559   75.7308 N   0  0  0  0  0  0  0  0  0  0  0  0
   30.6647   35.0228   74.4480 C   0  0  0  0  0  0  0  0  0  0  0  0
   31.9549   35.3384   73.9273 C   0  0  0  0  0  0  0  0  0  0  0  0
   32.8439   35.9801   74.7182 N   0  0  0  0  0  0  0  0  0  0  0  0
   32.4440   36.2566   75.9533 C   0  0  0  0  0  0  0  0  0  0  0  0
   27.4906   33.0423   72.2979 N   0  0  0  0  0  0  0  0  0  0  0  0
   27.8246   32.6663   73.5503 C   0  0  0  0  0  0  0  0  0  0  0  0
   28.8501   33.2881   74.2879 C   0  0  0  0  0  0  0  0  0  0  0  0
   29.5715   34.3568   73.7094 C   0  0  0  0  0  0  0  0  0  0  0  0
   29.2098   34.7465   72.4002 C   0  0  0  0  0  0  0  0  0  0  0  0
   28.1740   34.0610   71.7397 C   0  0  0  0  0  0  0  0  0  0  0  0
   33.4613   34.4056   69.9819 C   0  0  0  0  0  0  0  0  0  0  0  0
   32.6243   33.4949   70.6479 C   0  0  0  0  0  0  0  0  0  0  0  0
   32.1428   33.7890   71.9358 C   0  0  0  0  0  0  0  0  0  0  0  0
   32.4678   35.0090   72.5750 C   0  0  0  0  0  0  0  0  0  0  0  0
   33.3338   35.9013   71.8940 C   0  0  0  0  0  0  0  0  0  0  0  0
   33.8248   35.6086   70.6084 C   0  0  0  0  0  0  0  0  0  0  0  0
   33.3494   36.9019   76.7339 N   0  0  0  0  0  0  0  0  0  0  0  0
   27.7774   34.4448   70.3301 C   0  0  0  0  0  0  0  0  0  0  0  0
   27.0311   31.5135   74.1293 C   0  0  0  0  0  0  0  0  0  0  0  0
   29.0874   32.9472   75.2858 H   0  0  0  0  0  0  0  0  0  0  0  0
   29.7223   35.5595   71.9073 H   0  0  0  0  0  0  0  0  0  0  0  0
   33.9153   34.1226   68.7403 F   0  0  0  0  0  0  0  0  0  0  0  0
   32.3602   32.5632   70.1718 H   0  0  0  0  0  0  0  0  0  0  0  0
   31.5220   33.0587   72.4337 H   0  0  0  0  0  0  0  0  0  0  0  0
   33.6260   36.8338   72.3560 H   0  0  0  0  0  0  0  0  0  0  0  0
   34.4771   36.3057   70.1031 H   0  0  0  0  0  0  0  0  0  0  0  0
   34.1484   37.3588   76.3027 H   0  0  0  0  0  0  0  0  0  0  0  0
   33.0614   37.2182   77.6580 H   0  0  0  0  0  0  0  0  0  0  0  0
   27.8730   35.5215   70.1837 H   0  0  0  0  0  0  0  0  0  0  0  0
   28.4223   33.9390   69.6107 H   0  0  0  0  0  0  0  0  0  0  0  0
   26.7441   34.1669   70.1217 H   0  0  0  0  0  0  0  0  0  0  0  0
   27.4482   31.1820   75.0806 H   0  0  0  0  0  0  0  0  0  0  0  0
   27.0348   30.6632   73.4460 H   0  0  0  0  0  0  0  0  0  0  0  0
   25.9965   31.8159   74.2969 H   0  0  0  0  0  0  0  0  0  0  0  0
  1  2  1  0  0  0  0
  1  6  2  0  0  0  0
  2  3  2  0  0  0  0
  3  4  1  0  0  0  0
  3 10  1  0  0  0  0
  4  5  2  0  0  0  0
  4 16  1  0  0  0  0
  5  6  1  0  0  0  0
  6 19  1  0  0  0  0
  7  8  1  0  0  0  0
  7 12  2  0  0  0  0
  8  9  2  0  0  0  0
  8 21  1  0  0  0  0
  9 10  1  0  0  0  0
  9 22  1  0  0  0  0
 10 11  2  0  0  0  0
 11 12  1  0  0  0  0
 11 23  1  0  0  0  0
 12 20  1  0  0  0  0
 13 14  1  0  0  0  0
 13 18  2  0  0  0  0
 13 24  1  0  0  0  0
 14 15  2  0  0  0  0
 14 25  1  0  0  0  0
 15 16  1  0  0  0  0
 15 26  1  0  0  0  0
 16 17  2  0  0  0  0
 17 18  1  0  0  0  0
 17 27  1  0  0  0  0
 18 28  1  0  0  0  0
 19 29  1  0  0  0  0
 19 30  1  0  0  0  0
 20 31  1  0  0  0  0
 20 32  1  0  0  0  0
 20 33  1  0  0  0  0
 21 34  1  0  0  0  0
 21 35  1  0  0  0  0
 21 36  1  0  0  0  0
M  END
$$$$
