4n
  PyMOL2.6          3D                             0

 30 32  0  0  0  0  0  0  0  0999 V2000
   31.1526   36.0255   76.4088 N   0  0  0  0  0  0  0  0  0  0  0  0
   30.2952   35.3680   75.6167 N   0  0  0  0  0  0  0  0  0  0  0  0
   30.6575   35.0328   74.3499 C   0  0  0  0  0  0  0  0  0  0  0  0
   31.9573   35.3686   73.8689 C   0  0  0  0  0  0  0  0  0  0  0  0
   32.8026   36.0385   74.6839 N   0  0  0  0  0  0  0  0  0  0  0  0
   32.3471   36.3283   75.8967 C   0  0  0  0  0  0  0  0  0  0  0  0
   27.6980   32.9278   72.0448 N   0  0  0  0  0  0  0  0  0  0  0  0
   28.0588   32.4921   73.2719 C   0  0  0  0  0  0  0  0  0  0  0  0
   29.0058   33.1637   74.0646 C   0  0  0  0  0  0  0  0  0  0  0  0
   29.6177   34.3345   73.5731 C   0  0  0  0  0  0  0  0  0  0  0  0
   29.2229   34.7856   72.2969 C   0  0  0  0  0  0  0  0  0  0  0  0
   28.2647   34.0563   71.5714 C   0  0  0  0  0  0  0  0  0  0  0  0
   33.5455   34.4621   69.9450 C   0  0  0  0  0  0  0  0  0  0  0  0
   33.8987   35.6582   70.5915 C   0  0  0  0  0  0  0  0  0  0  0  0
   33.3849   35.9406   71.8702 C   0  0  0  0  0  0  0  0  0  0  0  0
   32.5067   35.0439   72.5280 C   0  0  0  0  0  0  0  0  0  0  0  0
   32.1892   33.8328   71.8666 C   0  0  0  0  0  0  0  0  0  0  0  0
   32.6920   33.5483   70.5847 C   0  0  0  0  0  0  0  0  0  0  0  0
   33.2027   37.0206   76.6933 N   0  0  0  0  0  0  0  0  0  0  0  0
   27.8016   34.6222   70.0082 Cl  0  0  0  0  0  0  0  0  0  0  0  0
   27.3453   31.0449   73.8790 Cl  0  0  0  0  0  0  0  0  0  0  0  0
   29.2727   32.7739   75.0374 H   0  0  0  0  0  0  0  0  0  0  0  0
   29.6548   35.6793   71.8696 H   0  0  0  0  0  0  0  0  0  0  0  0
   33.9309   34.2442   68.9602 H   0  0  0  0  0  0  0  0  0  0  0  0
   34.5616   36.3616   70.1075 H   0  0  0  0  0  0  0  0  0  0  0  0
   33.6685   36.8686   72.3444 H   0  0  0  0  0  0  0  0  0  0  0  0
   31.5584   33.0964   72.3421 H   0  0  0  0  0  0  0  0  0  0  0  0
   32.4260   32.6231   70.0946 H   0  0  0  0  0  0  0  0  0  0  0  0
   34.0754   37.3846   76.3193 H   0  0  0  0  0  0  0  0  0  0  0  0
   32.9163   37.2915   77.6331 H   0  0  0  0  0  0  0  0  0  0  0  0
  1  2  1  0  0  0  0
  1  6  2  0  0  0  0
  2  3  2  0  0  0  0
  3  4  1  0  0  0  0
  3 10  1  0  0  0  0
  4  5  2  0  0  0  0
  4 16  1  0  0  0  0
  5  6  1  0  0  0  0
  6 19  1  0  0  0  0
  7  8  1  0  0  0  0
  7 12  2  0  0  0  0
  8  9  2  0  0  0  0
  8 21  1  0  0  0  0
  9 10  1  0  0  0  0
  9 22  1  0  0  0  0
 10 11  2  0  0  0  0
 11 12  1  0  0  0  0
 11 23  1  0  0  0  0
 12 20  1  0  0  0  0
 13 14  1  0  0  0  0
 13 18  2  0  0  0  0
 13 24  1  0  0  0  0
 14 15  2  0  0  0  0
 14 25  1  0  0  0  0
 15 16  1  0  0  0  0
 15 26  1  0  0  0  0
 16 17  2  0  0  0  0
 17 18  1  0  0  0  0
 17 27  1  0  0  0  0
 18 28  1  0  0  0  0
 19 29  1  0  0  0  0
 19 30  1  0  0  0  0
M  END
$$$$
