4q
  PyMOL2.6          3D                             0

 30 32  0  0  0  0  0  0  0  0999 V2000
   31.1236   36.1119   76.6154 N   0  0  0  0  0  0  0  0  0  0  0  0
   30.2565   35.4518   75.8395 N   0  0  0  0  0  0  0  0  0  0  0  0
   30.5982   35.0871   74.5750 C   0  0  0  0  0  0  0  0  0  0  0  0
   31.8986   35.3982   74.0772 C   0  0  0  0  0  0  0  0  0  0  0  0
   32.7610   36.0704   74.8792 N   0  0  0  0  0  0  0  0  0  0  0  0
   32.3194   36.3907   76.0950 C   0  0  0  0  0  0  0  0  0  0  0  0
   27.4340   33.0475   72.4468 N   0  0  0  0  0  0  0  0  0  0  0  0
   27.7597   32.7138   73.7128 C   0  0  0  0  0  0  0  0  0  0  0  0
   28.7852   33.3479   74.4375 C   0  0  0  0  0  0  0  0  0  0  0  0
   29.5228   34.3906   73.8337 C   0  0  0  0  0  0  0  0  0  0  0  0
   29.1772   34.7340   72.5068 C   0  0  0  0  0  0  0  0  0  0  0  0
   28.1388   34.0376   71.8617 C   0  0  0  0  0  0  0  0  0  0  0  0
   33.4197   34.4098   70.1358 C   0  0  0  0  0  0  0  0  0  0  0  0
   32.5844   33.5073   70.8148 C   0  0  0  0  0  0  0  0  0  0  0  0
   32.1107   33.8125   72.1055 C   0  0  0  0  0  0  0  0  0  0  0  0
   32.4283   35.0422   72.7325 C   0  0  0  0  0  0  0  0  0  0  0  0
   33.2899   35.9263   72.0352 C   0  0  0  0  0  0  0  0  0  0  0  0
   33.7812   35.6178   70.7530 C   0  0  0  0  0  0  0  0  0  0  0  0
   33.1770   37.0980   76.8852 N   0  0  0  0  0  0  0  0  0  0  0  0
   27.1814   31.9182   74.1600 H   0  0  0  0  0  0  0  0  0  0  0  0
   28.9979   33.0363   75.4493 H   0  0  0  0  0  0  0  0  0  0  0  0
   29.6919   35.5275   71.9857 H   0  0  0  0  0  0  0  0  0  0  0  0
   27.8586   34.2886   70.8489 H   0  0  0  0  0  0  0  0  0  0  0  0
   33.7919   34.1716   69.1500 H   0  0  0  0  0  0  0  0  0  0  0  0
   32.3284   32.5653   70.3526 H   0  0  0  0  0  0  0  0  0  0  0  0
   31.4957   33.0850   72.6143 H   0  0  0  0  0  0  0  0  0  0  0  0
   33.5800   36.8689   72.4747 H   0  0  0  0  0  0  0  0  0  0  0  0
   34.4360   36.3101   70.2461 H   0  0  0  0  0  0  0  0  0  0  0  0
   34.0758   37.3958   76.5197 H   0  0  0  0  0  0  0  0  0  0  0  0
   32.9141   37.3640   77.8471 H   0  0  0  0  0  0  0  0  0  0  0  0
  1  2  1  0  0  0  0
  1  6  2  0  0  0  0
  2  3  2  0  0  0  0
  3  4  1  0  0  0  0
  3 10  1  0  0  0  0
  4  5  2  0  0  0  0
  4 16  1  0  0  0  0
  5  6  1  0  0  0  0
  6 19  1  0  0  0  0
  7  8  1  0  0  0  0
  7 12  2  0  0  0  0
  8  9  2  0  0  0  0
  8 20  1  0  0  0  0
  9 10  1  0  0  0  0
  9 21  1  0  0  0  0
 10 11  2  0  0  0  0
 11 12  1  0  0  0  0
 11 22  1  0  0  0  0
 12 23  1  0  0  0  0
 13 14  1  0  0  0  0
 13 18  2  0  0  0  0
 13 24  1  0  0  0  0
 14 15  2  0  0  0  0
 14 25  1  0  0  0  0
 15 16  1  0  0  0  0
 15 26  1  0  0  0  0
 16 17  2  0  0  0  0
 17 18  1  0  0  0  0
 17 27  1  0  0  0  0
 18 28  1  0  0  0  0
 19 29  1  0  0  0  0
 19 30  1  0  0  0  0
M  END
$$$$
