11b - preprocessed
  PyMOL2.4          3D                             0

 33 34  0  0  0  0  0  0  0  0999 V2000
   45.3980   39.5280   37.5850 C   0  0  0  0  0  0  0  0  0  0  0  0
   44.8670   38.3530   36.9060 N   0  0  0  0  0  0  0  0  0  0  0  0
   45.7790   37.6690   36.0030 C   0  0  0  0  0  0  0  0  0  0  0  0
   46.3180   38.6660   34.9550 C   0  0  0  0  0  0  0  0  0  0  0  0
   46.8420   39.9150   35.5680 N   0  3  0  0  0  0  0  0  0  0  0  0
   45.9200   40.5420   36.5480 C   0  0  0  0  0  0  0  0  0  0  0  0
   43.8160   37.6300   37.5020 C   0  0  0  0  0  0  0  0  0  0  0  0
   43.8190   37.4390   38.9050 C   0  0  0  0  0  0  0  0  0  0  0  0
   42.7390   36.8040   39.5420 C   0  0  0  0  0  0  0  0  0  0  0  0
   41.6240   36.3970   38.7920 C   0  0  0  0  0  0  0  0  0  0  0  0
   41.6100   36.5510   37.3900 C   0  0  0  0  0  0  0  0  0  0  0  0
   42.7190   37.1420   36.7360 C   0  0  0  0  0  0  0  0  0  0  0  0
   40.3870   36.0780   36.6110 C   0  0  0  0  0  0  0  0  0  0  0  0
   39.4520   37.2260   36.2150 C   0  0  0  0  0  0  0  0  0  0  0  0
   42.6940   37.2930   35.0140 Cl  0  0  0  0  0  0  0  0  0  0  0  0
   46.2138   39.2292   38.2432 H   0  0  0  0  0  0  0  0  0  0  0  0
   44.6105   39.9902   38.1802 H   0  0  0  0  0  0  0  0  0  0  0  0
   45.2509   36.8607   35.4972 H   0  0  0  0  0  0  0  0  0  0  0  0
   46.6114   37.2553   36.5723 H   0  0  0  0  0  0  0  0  0  0  0  0
   45.5250   38.9138   34.2494 H   0  0  0  0  0  0  0  0  0  0  0  0
   47.1071   38.1891   34.3736 H   0  0  0  0  0  0  0  0  0  0  0  0
   47.0590   40.5800   34.8395 H   0  0  0  0  0  0  0  0  0  0  0  0
   47.7265   39.7225   36.0161 H   0  0  0  0  0  0  0  0  0  0  0  0
   46.4347   41.3538   37.0620 H   0  0  0  0  0  0  0  0  0  0  0  0
   45.0768   40.9865   36.0194 H   0  0  0  0  0  0  0  0  0  0  0  0
   44.6559   37.7824   39.4949 H   0  0  0  0  0  0  0  0  0  0  0  0
   42.7673   36.6295   40.6074 H   0  0  0  0  0  0  0  0  0  0  0  0
   40.7688   35.9624   39.2882 H   0  0  0  0  0  0  0  0  0  0  0  0
   39.8358   35.3517   37.2083 H   0  0  0  0  0  0  0  0  0  0  0  0
   40.7109   35.5491   35.7146 H   0  0  0  0  0  0  0  0  0  0  0  0
   38.6003   36.8278   35.6634 H   0  0  0  0  0  0  0  0  0  0  0  0
   39.0980   37.7330   37.1126 H   0  0  0  0  0  0  0  0  0  0  0  0
   39.9918   37.9347   35.5869 H   0  0  0  0  0  0  0  0  0  0  0  0
  1  2  1  0  0  0  0
  1  6  1  0  0  0  0
  1 16  1  0  0  0  0
  1 17  1  0  0  0  0
  2  3  1  0  0  0  0
  2  7  1  0  0  0  0
  3  4  1  0  0  0  0
  3 18  1  0  0  0  0
  3 19  1  0  0  0  0
  4  5  1  0  0  0  0
  4 20  1  0  0  0  0
  4 21  1  0  0  0  0
  5  6  1  0  0  0  0
  5 22  1  0  0  0  0
  5 23  1  0  0  0  0
  6 24  1  0  0  0  0
  6 25  1  0  0  0  0
  7  8  1  0  0  0  0
  7 12  2  0  0  0  0
  8  9  2  0  0  0  0
  8 26  1  0  0  0  0
  9 10  1  0  0  0  0
  9 27  1  0  0  0  0
 10 11  2  0  0  0  0
 10 28  1  0  0  0  0
 11 12  1  0  0  0  0
 11 13  1  0  0  0  0
 12 15  1  0  0  0  0
 13 14  1  0  0  0  0
 13 29  1  0  0  0  0
 13 30  1  0  0  0  0
 14 31  1  0  0  0  0
 14 32  1  0  0  0  0
 14 33  1  0  0  0  0
M  END
$$$$
