13a - preprocessed
  PyMOL2.4          3D                             0

 49 50  0  0  1  0  0  0  0  0999 V2000
   45.3870   39.5420   37.5790 C   0  0  0  0  0  0  0  0  0  0  0  0
   44.8490   38.3620   36.8980 N   0  0  1  0  0  0  0  0  0  0  0  0
   45.7700   37.6690   35.9990 C   0  0  0  0  0  0  0  0  0  0  0  0
   46.2840   38.6740   34.9510 C   0  0  0  0  0  0  0  0  0  0  0  0
   46.8100   39.9460   35.5400 N   0  3  0  0  0  0  0  0  0  0  0  0
   45.8800   40.5550   36.5400 C   0  0  0  0  0  0  0  0  0  0  0  0
   43.8180   37.6360   37.5390 C   0  0  0  0  0  0  0  0  0  0  0  0
   43.7850   37.4340   38.9450 C   0  0  0  0  0  0  0  0  0  0  0  0
   42.6760   36.8040   39.5460 C   0  0  0  0  0  0  0  0  0  0  0  0
   41.5900   36.4140   38.7670 C   0  0  0  0  0  0  0  0  0  0  0  0
   41.6050   36.5730   37.3760 C   0  0  0  0  0  0  0  0  0  0  0  0
   42.7300   37.1540   36.7610 C   0  0  0  0  0  0  0  0  0  0  0  0
   40.4030   36.1020   36.5760 C   0  0  0  0  0  0  0  0  0  0  0  0
   39.4710   37.2520   36.1860 C   0  0  0  0  0  0  0  0  0  0  0  0
   47.1910   40.9010   34.4610 C   0  0  0  0  0  0  0  0  0  0  0  0
   48.2470   41.9420   34.8870 C   0  0  0  0  0  0  0  0  0  0  0  0
   49.7010   41.4730   34.6920 C   0  0  0  0  0  0  0  0  0  0  0  0
   50.1460   41.3990   33.2240 C   0  0  0  0  0  0  0  0  0  0  0  0
   44.7990   37.8410   39.7720 O   0  0  0  0  0  0  0  0  0  0  0  0
   46.0820   37.3970   39.3880 C   0  0  0  0  0  0  0  0  0  0  0  0
   42.5940   36.3410   41.1920 Cl  0  0  0  0  0  0  0  0  0  0  0  0
   46.2178   39.2446   38.2188 H   0  0  0  0  0  0  0  0  0  0  0  0
   44.6060   39.9974   38.1879 H   0  0  0  0  0  0  0  0  0  0  0  0
   45.2445   36.8571   35.4962 H   0  0  0  0  0  0  0  0  0  0  0  0
   46.6117   37.2792   36.5715 H   0  0  0  0  0  0  0  0  0  0  0  0
   45.4833   38.9049   34.2484 H   0  0  0  0  0  0  0  0  0  0  0  0
   47.0633   38.2040   34.3511 H   0  0  0  0  0  0  0  0  0  0  0  0
   47.6583   39.7103   36.0350 H   0  0  0  0  0  0  0  0  0  0  0  0
   46.3823   41.3788   37.0471 H   0  0  0  0  0  0  0  0  0  0  0  0
   45.0244   40.9883   36.0221 H   0  0  0  0  0  0  0  0  0  0  0  0
   40.7179   35.9811   39.2344 H   0  0  0  0  0  0  0  0  0  0  0  0
   42.7601   37.2313   35.6842 H   0  0  0  0  0  0  0  0  0  0  0  0
   39.8470   35.3661   37.1568 H   0  0  0  0  0  0  0  0  0  0  0  0
   40.7446   35.5912   35.6757 H   0  0  0  0  0  0  0  0  0  0  0  0
   38.6286   36.8603   35.6159 H   0  0  0  0  0  0  0  0  0  0  0  0
   39.1026   37.7432   37.0866 H   0  0  0  0  0  0  0  0  0  0  0  0
   40.0172   37.9726   35.5773 H   0  0  0  0  0  0  0  0  0  0  0  0
   46.2996   41.4162   34.1030 H   0  0  0  0  0  0  0  0  0  0  0  0
   47.5594   40.3444   33.5993 H   0  0  0  0  0  0  0  0  0  0  0  0
   48.0904   42.2088   35.9322 H   0  0  0  0  0  0  0  0  0  0  0  0
   48.0878   42.8664   34.3317 H   0  0  0  0  0  0  0  0  0  0  0  0
   49.8313   40.4966   35.1587 H   0  0  0  0  0  0  0  0  0  0  0  0
   50.3709   42.1359   35.2396 H   0  0  0  0  0  0  0  0  0  0  0  0
   51.1810   41.0608   33.1741 H   0  0  0  0  0  0  0  0  0  0  0  0
   49.5087   40.6975   32.6855 H   0  0  0  0  0  0  0  0  0  0  0  0
   50.0646   42.3861   32.7689 H   0  0  0  0  0  0  0  0  0  0  0  0
   46.8222   37.7655   40.0982 H   0  0  0  0  0  0  0  0  0  0  0  0
   46.1015   36.3072   39.3763 H   0  0  0  0  0  0  0  0  0  0  0  0
   46.3149   37.7748   38.3924 H   0  0  0  0  0  0  0  0  0  0  0  0
  1  2  1  0  0  0  0
  1  6  1  0  0  0  0
  1 22  1  0  0  0  0
  1 23  1  0  0  0  0
  2  3  1  0  0  0  0
  2  7  1  0  0  0  0
  3  4  1  0  0  0  0
  3 24  1  0  0  0  0
  3 25  1  0  0  0  0
  4  5  1  0  0  0  0
  4 26  1  0  0  0  0
  4 27  1  0  0  0  0
  5  6  1  0  0  0  0
  5 15  1  0  0  0  0
  5 28  1  0  0  0  0
  6 29  1  0  0  0  0
  6 30  1  0  0  0  0
  7  8  1  0  0  0  0
  7 12  2  0  0  0  0
  8  9  2  0  0  0  0
  8 19  1  0  0  0  0
  9 10  1  0  0  0  0
  9 21  1  0  0  0  0
 10 11  2  0  0  0  0
 10 31  1  0  0  0  0
 11 12  1  0  0  0  0
 11 13  1  0  0  0  0
 12 32  1  0  0  0  0
 13 14  1  0  0  0  0
 13 33  1  0  0  0  0
 13 34  1  0  0  0  0
 14 35  1  0  0  0  0
 14 36  1  0  0  0  0
 14 37  1  0  0  0  0
 15 16  1  0  0  0  0
 15 38  1  0  0  0  0
 15 39  1  0  0  0  0
 16 17  1  0  0  0  0
 16 40  1  0  0  0  0
 16 41  1  0  0  0  0
 17 18  1  0  0  0  0
 17 42  1  0  0  0  0
 17 43  1  0  0  0  0
 18 44  1  0  0  0  0
 18 45  1  0  0  0  0
 18 46  1  0  0  0  0
 19 20  1  0  0  0  0
 20 47  1  0  0  0  0
 20 48  1  0  0  0  0
 20 49  1  0  0  0  0
M  END
$$$$
