19_aligned - preprocessed
  PyMOL2.6          3D                             0

 26 27  0  0  1  0  0  0  0  0999 V2000
   45.9020   45.9890   72.5320 C   0  0  0  0  0  0  0  0  0  0  0  0
   45.7840   46.3840   71.1010 C   0  0  0  0  0  0  0  0  0  0  0  0
   46.3350   45.5970   70.1240 C   0  0  0  0  0  0  0  0  0  0  0  0
   46.9320   44.2450   70.4120 C   0  0  2  0  0  0  0  0  0  0  0  0
   47.5770   44.3670   71.6770 O   0  0  0  0  0  0  0  0  0  0  0  0
   46.5870   44.6210   72.6860 C   0  0  0  0  0  0  0  0  0  0  0  0
   46.1870   46.3400   68.5530 S   0  0  0  0  0  0  0  0  0  0  0  0
   45.3930   47.7170   69.2650 C   0  0  0  0  0  0  0  0  0  0  0  0
   45.2310   47.5920   70.6130 C   0  0  0  0  0  0  0  0  0  0  0  0
   47.8130   43.6620   69.3340 C   0  0  0  0  0  0  0  0  0  0  0  0
   48.1310   42.2280   69.5000 N   0  3  0  0  0  0  0  0  0  0  0  0
   47.0130   41.2800   69.3790 C   0  0  0  0  0  0  0  0  0  0  0  0
   44.9094   45.9502   72.9806 H   0  0  0  0  0  0  0  0  0  0  0  0
   46.4746   46.7440   73.0707 H   0  0  0  0  0  0  0  0  0  0  0  0
   46.0995   43.5545   70.5473 H   0  0  0  0  0  0  0  0  0  0  0  0
   45.8334   43.8339   72.6599 H   0  0  0  0  0  0  0  0  0  0  0  0
   47.0493   44.5566   73.6710 H   0  0  0  0  0  0  0  0  0  0  0  0
   45.0415   48.6039   68.7588 H   0  0  0  0  0  0  0  0  0  0  0  0
   44.7535   48.2811   71.2938 H   0  0  0  0  0  0  0  0  0  0  0  0
   48.7399   44.2328   69.2777 H   0  0  0  0  0  0  0  0  0  0  0  0
   47.3446   43.8175   68.3621 H   0  0  0  0  0  0  0  0  0  0  0  0
   48.5887   42.0900   70.3897 H   0  0  0  0  0  0  0  0  0  0  0  0
   48.8568   41.9709   68.8464 H   0  0  0  0  0  0  0  0  0  0  0  0
   47.3806   40.2638   69.5214 H   0  0  0  0  0  0  0  0  0  0  0  0
   46.2625   41.5038   70.1371 H   0  0  0  0  0  0  0  0  0  0  0  0
   46.5662   41.3688   68.3888 H   0  0  0  0  0  0  0  0  0  0  0  0
  1  2  1  0  0  0  0
  1  6  1  0  0  0  0
  1 13  1  0  0  0  0
  1 14  1  0  0  0  0
  2  3  2  0  0  0  0
  2  9  1  0  0  0  0
  3  4  1  0  0  0  0
  3  7  1  0  0  0  0
  4  5  1  0  0  0  0
  4 10  1  0  0  0  0
  4 15  1  0  0  0  0
  5  6  1  0  0  0  0
  6 16  1  0  0  0  0
  6 17  1  0  0  0  0
  7  8  1  0  0  0  0
  8  9  2  0  0  0  0
  8 18  1  0  0  0  0
  9 19  1  0  0  0  0
 10 11  1  0  0  0  0
 10 20  1  0  0  0  0
 10 21  1  0  0  0  0
 11 12  1  0  0  0  0
 11 22  1  0  0  0  0
 11 23  1  0  0  0  0
 12 24  1  0  0  0  0
 12 25  1  0  0  0  0
 12 26  1  0  0  0  0
M  END
$$$$
