21_aligned - preprocessed
  PyMOL2.6          3D                             0

 29 30  0  0  1  0  0  0  0  0999 V2000
   45.7800   46.1230   72.5050 C   0  0  0  0  0  0  0  0  0  0  0  0
   45.7840   46.3770   71.0420 C   0  0  0  0  0  0  0  0  0  0  0  0
   46.4100   45.4990   70.1910 C   0  0  0  0  0  0  0  0  0  0  0  0
   47.1370   44.2460   70.5840 C   0  0  1  0  0  0  0  0  0  0  0  0
   46.8590   43.9680   71.9670 O   0  0  0  0  0  0  0  0  0  0  0  0
   46.8430   45.0870   72.8700 C   0  0  0  0  0  0  0  0  0  0  0  0
   46.3010   46.0130   68.5420 S   0  0  0  0  0  0  0  0  0  0  0  0
   45.3440   47.3620   69.0250 C   0  0  0  0  0  0  0  0  0  0  0  0
   45.1590   47.4530   70.3720 C   0  0  0  0  0  0  0  0  0  0  0  0
   46.7560   43.0200   69.7090 C   0  0  0  0  0  0  0  0  0  0  0  0
   47.6570   41.8600   69.8990 N   0  3  0  0  0  0  0  0  0  0  0  0
   47.4040   40.7650   68.9490 C   0  0  0  0  0  0  0  0  0  0  0  0
   48.6130   44.4060   70.5320 C   0  0  0  0  0  0  0  0  0  0  0  0
   44.7985   45.7580   72.8074 H   0  0  0  0  0  0  0  0  0  0  0  0
   45.9826   47.0534   73.0355 H   0  0  0  0  0  0  0  0  0  0  0  0
   46.6681   44.7308   73.8852 H   0  0  0  0  0  0  0  0  0  0  0  0
   47.8243   45.5615   72.8762 H   0  0  0  0  0  0  0  0  0  0  0  0
   44.9054   48.0991   68.3687 H   0  0  0  0  0  0  0  0  0  0  0  0
   44.6258   48.2038   70.9362 H   0  0  0  0  0  0  0  0  0  0  0  0
   46.7572   43.3108   68.6585 H   0  0  0  0  0  0  0  0  0  0  0  0
   45.7311   42.7221   69.9302 H   0  0  0  0  0  0  0  0  0  0  0  0
   47.5629   41.5134   70.8430 H   0  0  0  0  0  0  0  0  0  0  0  0
   48.6166   42.1632   69.8134 H   0  0  0  0  0  0  0  0  0  0  0  0
   48.0980   39.9472   69.1432 H   0  0  0  0  0  0  0  0  0  0  0  0
   46.3809   40.4087   69.0686 H   0  0  0  0  0  0  0  0  0  0  0  0
   47.5455   41.1269   67.9306 H   0  0  0  0  0  0  0  0  0  0  0  0
   49.0909   43.4713   70.8253 H   0  0  0  0  0  0  0  0  0  0  0  0
   48.9153   44.6653   69.5174 H   0  0  0  0  0  0  0  0  0  0  0  0
   48.9173   45.1990   71.2151 H   0  0  0  0  0  0  0  0  0  0  0  0
  1  2  1  0  0  0  0
  1  6  1  0  0  0  0
  1 14  1  0  0  0  0
  1 15  1  0  0  0  0
  2  3  2  0  0  0  0
  2  9  1  0  0  0  0
  3  4  1  0  0  0  0
  3  7  1  0  0  0  0
  4  5  1  0  0  0  0
  4 10  1  0  0  0  0
  4 13  1  0  0  0  0
  5  6  1  0  0  0  0
  6 16  1  0  0  0  0
  6 17  1  0  0  0  0
  7  8  1  0  0  0  0
  8  9  2  0  0  0  0
  8 18  1  0  0  0  0
  9 19  1  0  0  0  0
 10 11  1  0  0  0  0
 10 20  1  0  0  0  0
 10 21  1  0  0  0  0
 11 12  1  0  0  0  0
 11 22  1  0  0  0  0
 11 23  1  0  0  0  0
 12 24  1  0  0  0  0
 12 25  1  0  0  0  0
 12 26  1  0  0  0  0
 13 27  1  0  0  0  0
 13 28  1  0  0  0  0
 13 29  1  0  0  0  0
M  END
$$$$
