46433 - preprocessed
  PyMOL2.4          3D                             0

 56 61  0  0  1  0  0  0  0  0999 V2000
   45.4900   36.5210   63.0010 C   0  0  0  0  0  0  0  0  0  0  0  0
   46.5310   36.3580   64.0850 C   0  0  0  0  0  0  0  0  0  0  0  0
   46.2410   36.4680   65.4170 C   0  0  0  0  0  0  0  0  0  0  0  0
   47.3140   36.7220   66.2920 C   0  0  0  0  0  0  0  0  0  0  0  0
   48.5960   36.7250   65.8800 N   0  0  0  0  0  0  0  0  0  0  0  0
   48.8520   36.5140   64.5440 C   0  0  0  0  0  0  0  0  0  0  0  0
   47.8140   36.3840   63.6360 N   0  0  0  0  0  0  0  0  0  0  0  0
   50.2130   36.5300   64.0910 N   0  0  0  0  0  0  0  0  0  0  0  0
   50.6350   36.3730   62.6740 C   0  0  0  0  0  0  0  0  0  0  0  0
   51.8330   37.2680   62.4910 C   0  0  1  0  0  0  0  0  0  0  0  0
   51.5190   38.4330   61.6040 C   0  0  0  0  0  0  0  0  0  0  0  0
   51.6170   39.6060   62.5640 N   0  0  0  0  0  0  0  0  0  0  0  0
   52.5780   39.2820   63.6300 C   0  0  0  0  0  0  0  0  0  0  0  0
   52.3550   37.7540   63.8440 C   0  0  1  0  0  0  0  0  0  0  0  0
   51.2460   37.3990   64.7530 C   0  0  0  0  0  0  0  0  0  0  0  0
   50.6990   40.5740   62.7590 C   0  0  0  0  0  0  0  0  0  0  0  0
   50.7380   41.3160   63.7790 O   0  0  0  0  0  0  0  0  0  0  0  0
   49.6540   40.5990   61.7050 C   0  0  0  0  0  0  0  0  0  0  0  0
   48.2710   40.3480   62.0870 C   0  0  0  0  0  0  0  0  0  0  0  0
   47.8770   40.0570   63.3860 F   0  0  0  0  0  0  0  0  0  0  0  0
   47.2630   40.3710   61.1630 C   0  0  0  0  0  0  0  0  0  0  0  0
   47.6290   40.5720   59.7670 C   0  0  0  0  0  0  0  0  0  0  0  0
   48.9600   40.7820   59.4620 C   0  0  0  0  0  0  0  0  0  0  0  0
   49.9530   40.9580   60.3990 C   0  0  0  0  0  0  0  0  0  0  0  0
   51.2800   41.3110   59.9250 N   0  0  0  0  0  0  0  0  0  0  0  0
   51.7460   41.1580   58.6560 N   0  0  0  0  0  0  0  0  0  0  0  0
   53.0020   41.5020   58.7360 C   0  0  0  0  0  0  0  0  0  0  0  0
   53.2580   41.9920   60.0010 C   0  0  0  0  0  0  0  0  0  0  0  0
   52.1890   41.9590   60.7050 N   0  0  0  0  0  0  0  0  0  0  0  0
   47.0750   36.9540   67.7540 C   0  0  0  0  0  0  0  0  0  0  0  0
   47.9150   37.1810   68.8330 C   0  0  0  0  0  0  0  0  0  0  0  0
   47.0930   37.3220   69.9530 C   0  0  0  0  0  0  0  0  0  0  0  0
   45.7900   37.1750   69.5070 C   0  0  0  0  0  0  0  0  0  0  0  0
   45.7810   36.9500   68.1670 O   0  0  0  0  0  0  0  0  0  0  0  0
   45.7430   35.9070   62.1350 H   0  0  0  0  0  0  0  0  0  0  0  0
   44.5070   36.2150   63.3570 H   0  0  0  0  0  0  0  0  0  0  0  0
   45.4390   37.5610   62.6820 H   0  0  0  0  0  0  0  0  0  0  0  0
   45.2240   36.4950   65.7760 H   0  0  0  0  0  0  0  0  0  0  0  0
   49.8110   36.5880   61.9930 H   0  0  0  0  0  0  0  0  0  0  0  0
   50.9070   35.3290   62.5200 H   0  0  0  0  0  0  0  0  0  0  0  0
   52.6140   36.6840   62.0000 H   0  0  0  0  0  0  0  0  0  0  0  0
   50.5650   38.3320   61.0890 H   0  0  0  0  0  0  0  0  0  0  0  0
   52.2850   38.5570   60.8380 H   0  0  0  0  0  0  0  0  0  0  0  0
   52.4670   39.8370   64.5640 H   0  0  0  0  0  0  0  0  0  0  0  0
   53.5820   39.4790   63.2550 H   0  0  0  0  0  0  0  0  0  0  0  0
   53.2710   37.2410   64.1380 H   0  0  0  0  0  0  0  0  0  0  0  0
   51.6230   36.8840   65.6370 H   0  0  0  0  0  0  0  0  0  0  0  0
   50.7450   38.2970   65.1180 H   0  0  0  0  0  0  0  0  0  0  0  0
   46.2390   40.1890   61.4570 H   0  0  0  0  0  0  0  0  0  0  0  0
   46.8800   40.5400   58.9900 H   0  0  0  0  0  0  0  0  0  0  0  0
   49.2020   40.9410   58.4200 H   0  0  0  0  0  0  0  0  0  0  0  0
   53.6610   41.4320   57.8820 H   0  0  0  0  0  0  0  0  0  0  0  0
   54.1740   42.4060   60.3980 H   0  0  0  0  0  0  0  0  0  0  0  0
   48.9960   37.2370   68.8080 H   0  0  0  0  0  0  0  0  0  0  0  0
   47.4090   37.5100   70.9710 H   0  0  0  0  0  0  0  0  0  0  0  0
   44.8260   37.2030   70.0000 H   0  0  0  0  0  0  0  0  0  0  0  0
  1  2  1  0  0  0  0
  1 35  1  0  0  0  0
  1 36  1  0  0  0  0
  1 37  1  0  0  0  0
  2  3  1  0  0  0  0
  2  7  2  0  0  0  0
  3  4  2  0  0  0  0
  3 38  1  0  0  0  0
  4  5  1  0  0  0  0
  4 30  1  0  0  0  0
  5  6  2  0  0  0  0
  6  7  1  0  0  0  0
  6  8  1  0  0  0  0
  8  9  1  0  0  0  0
  8 15  1  0  0  0  0
  9 10  1  0  0  0  0
  9 39  1  0  0  0  0
  9 40  1  0  0  0  0
 10 11  1  0  0  0  0
 10 14  1  0  0  0  0
 10 41  1  0  0  0  0
 11 12  1  0  0  0  0
 11 42  1  0  0  0  0
 11 43  1  0  0  0  0
 12 13  1  0  0  0  0
 12 16  1  0  0  0  0
 13 14  1  0  0  0  0
 13 44  1  0  0  0  0
 13 45  1  0  0  0  0
 14 15  1  0  0  0  0
 14 46  1  0  0  0  0
 15 47  1  0  0  0  0
 15 48  1  0  0  0  0
 16 17  2  0  0  0  0
 16 18  1  0  0  0  0
 18 19  1  0  0  0  0
 18 24  2  0  0  0  0
 19 20  1  0  0  0  0
 19 21  2  0  0  0  0
 21 22  1  0  0  0  0
 21 49  1  0  0  0  0
 22 23  2  0  0  0  0
 22 50  1  0  0  0  0
 23 24  1  0  0  0  0
 23 51  1  0  0  0  0
 24 25  1  0  0  0  0
 25 26  1  0  0  0  0
 25 29  1  0  0  0  0
 26 27  2  0  0  0  0
 27 28  1  0  0  0  0
 27 52  1  0  0  0  0
 28 29  2  0  0  0  0
 28 53  1  0  0  0  0
 30 31  2  0  0  0  0
 30 34  1  0  0  0  0
 31 32  1  0  0  0  0
 31 54  1  0  0  0  0
 32 33  2  0  0  0  0
 32 55  1  0  0  0  0
 33 34  1  0  0  0  0
 33 56  1  0  0  0  0
M  END
$$$$
