46892 - preprocessed
  PyMOL2.4          3D                             0

 59 63  0  0  1  0  0  0  0  0999 V2000
   45.4930   36.3620   63.0030 C   0  0  0  0  0  0  0  0  0  0  0  0
   46.5350   36.2850   64.0950 C   0  0  0  0  0  0  0  0  0  0  0  0
   46.2410   36.4680   65.4180 C   0  0  0  0  0  0  0  0  0  0  0  0
   47.3080   36.7960   66.2760 C   0  0  0  0  0  0  0  0  0  0  0  0
   48.5900   36.7990   65.8650 N   0  0  0  0  0  0  0  0  0  0  0  0
   48.8520   36.5140   64.5440 C   0  0  0  0  0  0  0  0  0  0  0  0
   47.8180   36.3090   63.6450 N   0  0  0  0  0  0  0  0  0  0  0  0
   50.2130   36.5300   64.0910 N   0  0  0  0  0  0  0  0  0  0  0  0
   51.2460   37.3990   64.7530 C   0  0  0  0  0  0  0  0  0  0  0  0
   52.3550   37.7540   63.8440 C   0  0  2  0  0  0  0  0  0  0  0  0
   52.5780   39.2820   63.6300 C   0  0  0  0  0  0  0  0  0  0  0  0
   51.6170   39.6060   62.5640 N   0  0  0  0  0  0  0  0  0  0  0  0
   51.5190   38.4330   61.6040 C   0  0  0  0  0  0  0  0  0  0  0  0
   51.8330   37.2680   62.4910 C   0  0  2  0  0  0  0  0  0  0  0  0
   50.6350   36.3730   62.6740 C   0  0  0  0  0  0  0  0  0  0  0  0
   50.6990   40.5740   62.7590 C   0  0  0  0  0  0  0  0  0  0  0  0
   50.7380   41.3160   63.7790 O   0  0  0  0  0  0  0  0  0  0  0  0
   49.6540   40.5990   61.7050 C   0  0  0  0  0  0  0  0  0  0  0  0
   48.2710   40.3480   62.0870 C   0  0  0  0  0  0  0  0  0  0  0  0
   47.8770   40.0570   63.3860 F   0  0  0  0  0  0  0  0  0  0  0  0
   47.2630   40.3710   61.1630 C   0  0  0  0  0  0  0  0  0  0  0  0
   47.6290   40.5720   59.7670 C   0  0  0  0  0  0  0  0  0  0  0  0
   48.9600   40.7820   59.4620 C   0  0  0  0  0  0  0  0  0  0  0  0
   49.9530   40.9580   60.3990 C   0  0  0  0  0  0  0  0  0  0  0  0
   51.2800   41.3110   59.9250 N   0  0  0  0  0  0  0  0  0  0  0  0
   52.1890   41.9590   60.7050 N   0  0  0  0  0  0  0  0  0  0  0  0
   53.2580   41.9920   60.0010 C   0  0  0  0  0  0  0  0  0  0  0  0
   53.0020   41.5020   58.7360 C   0  0  0  0  0  0  0  0  0  0  0  0
   51.7460   41.1580   58.6560 N   0  0  0  0  0  0  0  0  0  0  0  0
   47.1990   37.0700   67.7950 C   0  0  0  0  0  0  0  0  0  0  0  0
   48.1380   37.3550   68.5320 O   0  0  0  0  0  0  0  0  0  0  0  0
   45.9430   36.9620   68.2300 N   0  0  0  0  0  0  0  0  0  0  0  0
   45.5040   37.1590   69.6080 C   0  0  0  0  0  0  0  0  0  0  0  0
   44.7860   36.6260   67.4050 C   0  0  0  0  0  0  0  0  0  0  0  0
   44.5130   36.5360   63.4480 H   0  0  0  0  0  0  0  0  0  0  0  0
   45.7350   37.1810   62.3260 H   0  0  0  0  0  0  0  0  0  0  0  0
   45.4790   35.4240   62.4470 H   0  0  0  0  0  0  0  0  0  0  0  0
   51.6450   36.8530   65.6090 H   0  0  0  0  0  0  0  0  0  0  0  0
   50.7710   38.2960   65.1510 H   0  0  0  0  0  0  0  0  0  0  0  0
   53.2750   37.2930   64.2050 H   0  0  0  0  0  0  0  0  0  0  0  0
   53.5940   39.4890   63.2920 H   0  0  0  0  0  0  0  0  0  0  0  0
   52.4220   39.8370   64.5580 H   0  0  0  0  0  0  0  0  0  0  0  0
   52.2820   38.5700   60.8370 H   0  0  0  0  0  0  0  0  0  0  0  0
   50.5650   38.3320   61.0860 H   0  0  0  0  0  0  0  0  0  0  0  0
   52.5690   36.6420   61.9840 H   0  0  0  0  0  0  0  0  0  0  0  0
   49.7880   36.6440   62.0420 H   0  0  0  0  0  0  0  0  0  0  0  0
   50.8560   35.3240   62.4750 H   0  0  0  0  0  0  0  0  0  0  0  0
   46.2390   40.2650   61.4900 H   0  0  0  0  0  0  0  0  0  0  0  0
   46.8670   40.5910   59.0020 H   0  0  0  0  0  0  0  0  0  0  0  0
   49.2480   40.7410   58.4200 H   0  0  0  0  0  0  0  0  0  0  0  0
   54.2030   42.3490   60.3850 H   0  0  0  0  0  0  0  0  0  0  0  0
   53.6880   41.4280   57.9040 H   0  0  0  0  0  0  0  0  0  0  0  0
   46.3620   37.4100   70.2310 H   0  0  0  0  0  0  0  0  0  0  0  0
   44.7780   37.9710   69.6450 H   0  0  0  0  0  0  0  0  0  0  0  0
   45.0420   36.2420   69.9760 H   0  0  0  0  0  0  0  0  0  0  0  0
   44.3270   35.7110   67.7780 H   0  0  0  0  0  0  0  0  0  0  0  0
   44.0620   37.4400   67.4470 H   0  0  0  0  0  0  0  0  0  0  0  0
   45.2241   36.3596   65.7652 H   0  0  0  0  0  0  0  0  0  0  0  0
   45.1061   36.4775   66.3737 H   0  0  0  0  0  0  0  0  0  0  0  0
  1  2  1  0  0  0  0
  1 35  1  0  0  0  0
  1 36  1  0  0  0  0
  1 37  1  0  0  0  0
  2  3  1  0  0  0  0
  2  7  2  0  0  0  0
  3  4  2  0  0  0  0
  3 58  1  0  0  0  0
  4  5  1  0  0  0  0
  4 30  1  0  0  0  0
  5  6  2  0  0  0  0
  6  7  1  0  0  0  0
  6  8  1  0  0  0  0
  8  9  1  0  0  0  0
  8 15  1  0  0  0  0
  9 10  1  0  0  0  0
  9 38  1  0  0  0  0
  9 39  1  0  0  0  0
 10 11  1  0  0  0  0
 10 14  1  0  0  0  0
 10 40  1  0  0  0  0
 11 12  1  0  0  0  0
 11 41  1  0  0  0  0
 11 42  1  0  0  0  0
 12 13  1  0  0  0  0
 12 16  1  0  0  0  0
 13 14  1  0  0  0  0
 13 43  1  0  0  0  0
 13 44  1  0  0  0  0
 14 15  1  0  0  0  0
 14 45  1  0  0  0  0
 15 46  1  0  0  0  0
 15 47  1  0  0  0  0
 16 17  2  0  0  0  0
 16 18  1  0  0  0  0
 18 19  1  0  0  0  0
 18 24  2  0  0  0  0
 19 20  1  0  0  0  0
 19 21  2  0  0  0  0
 21 22  1  0  0  0  0
 21 48  1  0  0  0  0
 22 23  2  0  0  0  0
 22 49  1  0  0  0  0
 23 24  1  0  0  0  0
 23 50  1  0  0  0  0
 24 25  1  0  0  0  0
 25 26  1  0  0  0  0
 25 29  1  0  0  0  0
 26 27  2  0  0  0  0
 27 28  1  0  0  0  0
 27 51  1  0  0  0  0
 28 29  2  0  0  0  0
 28 52  1  0  0  0  0
 30 31  2  0  0  0  0
 30 32  1  0  0  0  0
 32 33  1  0  0  0  0
 32 34  1  0  0  0  0
 33 53  1  0  0  0  0
 33 54  1  0  0  0  0
 33 55  1  0  0  0  0
 34 56  1  0  0  0  0
 34 57  1  0  0  0  0
 34 59  1  0  0  0  0
M  END
$$$$
