47594 - preprocessed
  PyMOL2.4          3D                             0

 58 62  0  0  1  0  0  0  0  0999 V2000
   45.5040   36.0990   63.0270 C   0  0  0  0  0  0  0  0  0  0  0  0
   46.5450   36.1650   64.1210 C   0  0  0  0  0  0  0  0  0  0  0  0
   46.2420   36.4680   65.4190 C   0  0  0  0  0  0  0  0  0  0  0  0
   47.2940   36.9150   66.2400 C   0  0  0  0  0  0  0  0  0  0  0  0
   48.5770   36.9200   65.8300 N   0  0  0  0  0  0  0  0  0  0  0  0
   48.8520   36.5140   64.5440 C   0  0  0  0  0  0  0  0  0  0  0  0
   47.8280   36.1870   63.6710 N   0  0  0  0  0  0  0  0  0  0  0  0
   50.2130   36.5300   64.0910 N   0  0  0  0  0  0  0  0  0  0  0  0
   51.2460   37.3990   64.7530 C   0  0  0  0  0  0  0  0  0  0  0  0
   52.3550   37.7540   63.8440 C   0  0  2  0  0  0  0  0  0  0  0  0
   52.5780   39.2820   63.6300 C   0  0  0  0  0  0  0  0  0  0  0  0
   51.6170   39.6060   62.5640 N   0  0  0  0  0  0  0  0  0  0  0  0
   51.5190   38.4330   61.6040 C   0  0  0  0  0  0  0  0  0  0  0  0
   51.8330   37.2680   62.4910 C   0  0  2  0  0  0  0  0  0  0  0  0
   50.6350   36.3730   62.6740 C   0  0  0  0  0  0  0  0  0  0  0  0
   50.6990   40.5740   62.7590 C   0  0  0  0  0  0  0  0  0  0  0  0
   50.7380   41.3160   63.7790 O   0  0  0  0  0  0  0  0  0  0  0  0
   49.6540   40.5990   61.7050 C   0  0  0  0  0  0  0  0  0  0  0  0
   48.2710   40.3480   62.0870 C   0  0  0  0  0  0  0  0  0  0  0  0
   47.8770   40.0570   63.3860 F   0  0  0  0  0  0  0  0  0  0  0  0
   47.2630   40.3710   61.1630 C   0  0  0  0  0  0  0  0  0  0  0  0
   47.6290   40.5720   59.7670 C   0  0  0  0  0  0  0  0  0  0  0  0
   48.9600   40.7820   59.4620 C   0  0  0  0  0  0  0  0  0  0  0  0
   49.9530   40.9580   60.3990 C   0  0  0  0  0  0  0  0  0  0  0  0
   51.2800   41.3110   59.9250 N   0  0  0  0  0  0  0  0  0  0  0  0
   51.7460   41.1580   58.6560 N   0  0  0  0  0  0  0  0  0  0  0  0
   53.0020   41.5020   58.7360 C   0  0  0  0  0  0  0  0  0  0  0  0
   53.2580   41.9920   60.0010 C   0  0  0  0  0  0  0  0  0  0  0  0
   52.1890   41.9590   60.7050 N   0  0  0  0  0  0  0  0  0  0  0  0
   47.1720   37.3350   67.7240 C   0  0  0  0  0  0  0  0  0  0  0  0
   48.5200   37.7460   68.2400 C   0  0  0  0  0  0  0  0  0  0  0  0
   46.6600   36.1790   68.5310 C   0  0  0  0  0  0  0  0  0  0  0  0
   44.5180   36.2830   63.4530 H   0  0  0  0  0  0  0  0  0  0  0  0
   45.7210   36.8550   62.2730 H   0  0  0  0  0  0  0  0  0  0  0  0
   45.5220   35.1110   62.5670 H   0  0  0  0  0  0  0  0  0  0  0  0
   45.2460   36.3530   65.8190 H   0  0  0  0  0  0  0  0  0  0  0  0
   51.6450   36.8530   65.6090 H   0  0  0  0  0  0  0  0  0  0  0  0
   50.7710   38.2960   65.1510 H   0  0  0  0  0  0  0  0  0  0  0  0
   53.2750   37.2930   64.2050 H   0  0  0  0  0  0  0  0  0  0  0  0
   53.5940   39.4890   63.2920 H   0  0  0  0  0  0  0  0  0  0  0  0
   52.4220   39.8370   64.5580 H   0  0  0  0  0  0  0  0  0  0  0  0
   52.2820   38.5700   60.8370 H   0  0  0  0  0  0  0  0  0  0  0  0
   50.5650   38.3320   61.0860 H   0  0  0  0  0  0  0  0  0  0  0  0
   52.5690   36.6420   61.9840 H   0  0  0  0  0  0  0  0  0  0  0  0
   49.7880   36.6440   62.0420 H   0  0  0  0  0  0  0  0  0  0  0  0
   50.8560   35.3240   62.4750 H   0  0  0  0  0  0  0  0  0  0  0  0
   46.2390   40.2650   61.4900 H   0  0  0  0  0  0  0  0  0  0  0  0
   46.8670   40.5910   59.0020 H   0  0  0  0  0  0  0  0  0  0  0  0
   49.2480   40.7410   58.4200 H   0  0  0  0  0  0  0  0  0  0  0  0
   53.6480   41.4070   57.8740 H   0  0  0  0  0  0  0  0  0  0  0  0
   54.1680   42.3630   60.4510 H   0  0  0  0  0  0  0  0  0  0  0  0
   46.4800   38.1720   67.8090 H   0  0  0  0  0  0  0  0  0  0  0  0
   48.8920   38.5860   67.6530 H   0  0  0  0  0  0  0  0  0  0  0  0
   48.4340   38.0420   69.2850 H   0  0  0  0  0  0  0  0  0  0  0  0
   49.2120   36.9090   68.1550 H   0  0  0  0  0  0  0  0  0  0  0  0
   45.6810   35.8800   68.1560 H   0  0  0  0  0  0  0  0  0  0  0  0
   47.3530   35.3410   68.4460 H   0  0  0  0  0  0  0  0  0  0  0  0
   46.5740   36.4750   69.5760 H   0  0  0  0  0  0  0  0  0  0  0  0
  1  2  1  0  0  0  0
  1 33  1  0  0  0  0
  1 34  1  0  0  0  0
  1 35  1  0  0  0  0
  2  3  1  0  0  0  0
  2  7  2  0  0  0  0
  3  4  2  0  0  0  0
  3 36  1  0  0  0  0
  4  5  1  0  0  0  0
  4 30  1  0  0  0  0
  5  6  2  0  0  0  0
  6  7  1  0  0  0  0
  6  8  1  0  0  0  0
  8  9  1  0  0  0  0
  8 15  1  0  0  0  0
  9 10  1  0  0  0  0
  9 37  1  0  0  0  0
  9 38  1  0  0  0  0
 10 11  1  0  0  0  0
 10 14  1  0  0  0  0
 10 39  1  0  0  0  0
 11 12  1  0  0  0  0
 11 40  1  0  0  0  0
 11 41  1  0  0  0  0
 12 13  1  0  0  0  0
 12 16  1  0  0  0  0
 13 14  1  0  0  0  0
 13 42  1  0  0  0  0
 13 43  1  0  0  0  0
 14 15  1  0  0  0  0
 14 44  1  0  0  0  0
 15 45  1  0  0  0  0
 15 46  1  0  0  0  0
 16 17  2  0  0  0  0
 16 18  1  0  0  0  0
 18 19  1  0  0  0  0
 18 24  2  0  0  0  0
 19 20  1  0  0  0  0
 19 21  2  0  0  0  0
 21 22  1  0  0  0  0
 21 47  1  0  0  0  0
 22 23  2  0  0  0  0
 22 48  1  0  0  0  0
 23 24  1  0  0  0  0
 23 49  1  0  0  0  0
 24 25  1  0  0  0  0
 25 26  1  0  0  0  0
 25 29  1  0  0  0  0
 26 27  2  0  0  0  0
 27 28  1  0  0  0  0
 27 50  1  0  0  0  0
 28 29  2  0  0  0  0
 28 51  1  0  0  0  0
 30 31  1  0  0  0  0
 30 32  1  0  0  0  0
 30 52  1  0  0  0  0
 31 53  1  0  0  0  0
 31 54  1  0  0  0  0
 31 55  1  0  0  0  0
 32 56  1  0  0  0  0
 32 57  1  0  0  0  0
 32 58  1  0  0  0  0
M  END
$$$$
