48951 - preprocessed
  PyMOL2.4          3D                             0

 61 65  0  0  1  0  0  0  0  0999 V2000
   45.5940   35.8990   62.9270 C   0  0  0  0  0  0  0  0  0  0  0  0
   46.5850   36.1860   64.0800 C   0  0  0  0  0  0  0  0  0  0  0  0
   46.2380   36.4970   65.4090 C   0  0  0  0  0  0  0  0  0  0  0  0
   47.2620   36.6960   66.2930 C   0  0  0  0  0  0  0  0  0  0  0  0
   48.5580   36.7020   65.8840 N   0  0  0  0  0  0  0  0  0  0  0  0
   48.8520   36.5140   64.5440 C   0  0  0  0  0  0  0  0  0  0  0  0
   47.8570   36.2130   63.6410 N   0  0  0  0  0  0  0  0  0  0  0  0
   50.2130   36.5300   64.0910 N   0  0  0  0  0  0  0  0  0  0  0  0
   51.2460   37.3990   64.7530 C   0  0  0  0  0  0  0  0  0  0  0  0
   52.3550   37.7540   63.8440 C   0  0  2  0  0  0  0  0  0  0  0  0
   52.5780   39.2820   63.6300 C   0  0  0  0  0  0  0  0  0  0  0  0
   51.6170   39.6060   62.5640 N   0  0  0  0  0  0  0  0  0  0  0  0
   51.5190   38.4330   61.6040 C   0  0  0  0  0  0  0  0  0  0  0  0
   51.8330   37.2680   62.4910 C   0  0  2  0  0  0  0  0  0  0  0  0
   50.6350   36.3730   62.6740 C   0  0  0  0  0  0  0  0  0  0  0  0
   50.6990   40.5740   62.7590 C   0  0  0  0  0  0  0  0  0  0  0  0
   50.7380   41.3160   63.7790 O   0  0  0  0  0  0  0  0  0  0  0  0
   49.6540   40.5990   61.7050 C   0  0  0  0  0  0  0  0  0  0  0  0
   48.2710   40.3480   62.0870 C   0  0  0  0  0  0  0  0  0  0  0  0
   47.8770   40.0570   63.3860 F   0  0  0  0  0  0  0  0  0  0  0  0
   47.2630   40.3710   61.1630 C   0  0  0  0  0  0  0  0  0  0  0  0
   47.6290   40.5720   59.7670 C   0  0  0  0  0  0  0  0  0  0  0  0
   48.9600   40.7820   59.4620 C   0  0  0  0  0  0  0  0  0  0  0  0
   49.9530   40.9580   60.3990 C   0  0  0  0  0  0  0  0  0  0  0  0
   51.2800   41.3110   59.9250 N   0  0  0  0  0  0  0  0  0  0  0  0
   52.1890   41.9590   60.7050 N   0  0  0  0  0  0  0  0  0  0  0  0
   53.2580   41.9920   60.0010 C   0  0  0  0  0  0  0  0  0  0  0  0
   53.0020   41.5020   58.7360 C   0  0  0  0  0  0  0  0  0  0  0  0
   51.7460   41.1580   58.6560 N   0  0  0  0  0  0  0  0  0  0  0  0
   47.0830   36.6040   67.7910 C   0  0  0  0  0  0  0  0  0  0  0  0
   47.6620   35.2690   68.2990 C   0  0  0  0  0  0  0  0  0  0  0  0
   45.5990   36.6700   68.2190 C   0  0  0  0  0  0  0  0  0  0  0  0
   47.8070   37.7850   68.4730 C   0  0  0  0  0  0  0  0  0  0  0  0
   45.0120   35.0060   63.1520 H   0  0  0  0  0  0  0  0  0  0  0  0
   44.9090   36.7370   62.8080 H   0  0  0  0  0  0  0  0  0  0  0  0
   46.1080   35.7400   61.9780 H   0  0  0  0  0  0  0  0  0  0  0  0
   45.2030   36.4620   65.7080 H   0  0  0  0  0  0  0  0  0  0  0  0
   51.6220   36.8840   65.6380 H   0  0  0  0  0  0  0  0  0  0  0  0
   50.7440   38.2960   65.1180 H   0  0  0  0  0  0  0  0  0  0  0  0
   53.2710   37.2410   64.1380 H   0  0  0  0  0  0  0  0  0  0  0  0
   53.5830   39.4790   63.2550 H   0  0  0  0  0  0  0  0  0  0  0  0
   52.4660   39.8360   64.5640 H   0  0  0  0  0  0  0  0  0  0  0  0
   52.2850   38.5570   60.8380 H   0  0  0  0  0  0  0  0  0  0  0  0
   50.5640   38.3320   61.0890 H   0  0  0  0  0  0  0  0  0  0  0  0
   52.6140   36.6840   62.0000 H   0  0  0  0  0  0  0  0  0  0  0  0
   49.8100   36.5880   61.9940 H   0  0  0  0  0  0  0  0  0  0  0  0
   50.9070   35.3290   62.5210 H   0  0  0  0  0  0  0  0  0  0  0  0
   46.2400   40.1890   61.4580 H   0  0  0  0  0  0  0  0  0  0  0  0
   46.8800   40.5400   58.9900 H   0  0  0  0  0  0  0  0  0  0  0  0
   49.2020   40.9410   58.4200 H   0  0  0  0  0  0  0  0  0  0  0  0
   54.1740   42.4070   60.3980 H   0  0  0  0  0  0  0  0  0  0  0  0
   53.6610   41.4310   57.8820 H   0  0  0  0  0  0  0  0  0  0  0  0
   48.7290   35.1910   68.0840 H   0  0  0  0  0  0  0  0  0  0  0  0
   47.5380   35.1590   69.3760 H   0  0  0  0  0  0  0  0  0  0  0  0
   47.1740   34.4220   67.8170 H   0  0  0  0  0  0  0  0  0  0  0  0
   45.1230   37.5820   67.8580 H   0  0  0  0  0  0  0  0  0  0  0  0
   45.0320   35.8190   67.8410 H   0  0  0  0  0  0  0  0  0  0  0  0
   45.4990   36.6580   69.3040 H   0  0  0  0  0  0  0  0  0  0  0  0
   47.4280   38.7400   68.1080 H   0  0  0  0  0  0  0  0  0  0  0  0
   47.6810   37.7650   69.5550 H   0  0  0  0  0  0  0  0  0  0  0  0
   48.8790   37.7660   68.2730 H   0  0  0  0  0  0  0  0  0  0  0  0
  1  2  1  0  0  0  0
  1 34  1  0  0  0  0
  1 35  1  0  0  0  0
  1 36  1  0  0  0  0
  2  3  1  0  0  0  0
  2  7  2  0  0  0  0
  3  4  2  0  0  0  0
  3 37  1  0  0  0  0
  4  5  1  0  0  0  0
  4 30  1  0  0  0  0
  5  6  2  0  0  0  0
  6  7  1  0  0  0  0
  6  8  1  0  0  0  0
  8  9  1  0  0  0  0
  8 15  1  0  0  0  0
  9 10  1  0  0  0  0
  9 38  1  0  0  0  0
  9 39  1  0  0  0  0
 10 11  1  0  0  0  0
 10 14  1  0  0  0  0
 10 40  1  0  0  0  0
 11 12  1  0  0  0  0
 11 41  1  0  0  0  0
 11 42  1  0  0  0  0
 12 13  1  0  0  0  0
 12 16  1  0  0  0  0
 13 14  1  0  0  0  0
 13 43  1  0  0  0  0
 13 44  1  0  0  0  0
 14 15  1  0  0  0  0
 14 45  1  0  0  0  0
 15 46  1  0  0  0  0
 15 47  1  0  0  0  0
 16 17  2  0  0  0  0
 16 18  1  0  0  0  0
 18 19  1  0  0  0  0
 18 24  2  0  0  0  0
 19 20  1  0  0  0  0
 19 21  2  0  0  0  0
 21 22  1  0  0  0  0
 21 48  1  0  0  0  0
 22 23  2  0  0  0  0
 22 49  1  0  0  0  0
 23 24  1  0  0  0  0
 23 50  1  0  0  0  0
 24 25  1  0  0  0  0
 25 26  1  0  0  0  0
 25 29  1  0  0  0  0
 26 27  2  0  0  0  0
 27 28  1  0  0  0  0
 27 51  1  0  0  0  0
 28 29  2  0  0  0  0
 28 52  1  0  0  0  0
 30 31  1  0  0  0  0
 30 32  1  0  0  0  0
 30 33  1  0  0  0  0
 31 53  1  0  0  0  0
 31 54  1  0  0  0  0
 31 55  1  0  0  0  0
 32 56  1  0  0  0  0
 32 57  1  0  0  0  0
 32 58  1  0  0  0  0
 33 59  1  0  0  0  0
 33 60  1  0  0  0  0
 33 61  1  0  0  0  0
M  END
$$$$
