13
  PyMOL2.4          3D                             0

 27 28  0  0  0  0  0  0  0  0999 V2000
   55.4292   38.6859   58.6725 C   0  0  0  0  0  0  0  0  0  0  0  0
   55.3701   39.0008   60.0432 C   0  0  0  0  0  0  0  0  0  0  0  0
   54.3015   38.5348   60.8354 C   0  0  0  0  0  0  0  0  0  0  0  0
   53.2327   37.8209   60.2338 C   0  0  0  0  0  0  0  0  0  0  0  0
   53.2636   37.5738   58.8412 C   0  0  0  0  0  0  0  0  0  0  0  0
   54.3796   37.9640   58.0720 C   0  0  0  0  0  0  0  0  0  0  0  0
   52.1599   37.3687   61.0183 N   0  0  0  0  0  0  0  0  0  0  0  0
   52.4104   36.2275   61.8918 C   0  0  0  0  0  0  0  0  0  0  0  0
   51.4397   36.2637   63.0835 C   0  0  0  0  0  0  0  0  0  0  0  0
   50.0362   36.4196   62.6344 N   0  3  0  0  0  0  0  0  0  0  0  0
   49.8160   37.5191   61.6675 C   0  0  0  0  0  0  0  0  0  0  0  0
   50.8039   37.4542   60.4947 C   0  0  0  0  0  0  0  0  0  0  0  0
   56.5954   39.9935   60.7428 Cl  0  0  0  0  0  0  0  0  0  0  0  0
   54.2892   38.8908   62.5324 Cl  0  0  0  0  0  0  0  0  0  0  0  0
   56.2634   39.0310   58.0784 H   0  0  0  0  0  0  0  0  0  0  0  0
   52.4595   37.0320   58.3635 H   0  0  0  0  0  0  0  0  0  0  0  0
   54.4058   37.7601   57.0114 H   0  0  0  0  0  0  0  0  0  0  0  0
   52.2701   35.3112   61.3152 H   0  0  0  0  0  0  0  0  0  0  0  0
   53.4399   36.2136   62.2491 H   0  0  0  0  0  0  0  0  0  0  0  0
   51.6943   37.1005   63.7350 H   0  0  0  0  0  0  0  0  0  0  0  0
   51.5312   35.3555   63.6786 H   0  0  0  0  0  0  0  0  0  0  0  0
   49.4386   36.5623   63.4408 H   0  0  0  0  0  0  0  0  0  0  0  0
   49.9140   38.4708   62.1872 H   0  0  0  0  0  0  0  0  0  0  0  0
   48.7947   37.4632   61.2951 H   0  0  0  0  0  0  0  0  0  0  0  0
   50.6878   38.3383   59.8695 H   0  0  0  0  0  0  0  0  0  0  0  0
   50.5928   36.5867   59.8666 H   0  0  0  0  0  0  0  0  0  0  0  0
   49.7380   35.5604   62.1510 H   0  0  0  0  0  0  0  0  0  0  0  0
  1  2  2  0  0  0  0
  1  6  1  0  0  0  0
  1 15  1  0  0  0  0
  2  3  1  0  0  0  0
  2 13  1  0  0  0  0
  3  4  2  0  0  0  0
  3 14  1  0  0  0  0
  4  5  1  0  0  0  0
  4  7  1  0  0  0  0
  5  6  2  0  0  0  0
  5 16  1  0  0  0  0
  6 17  1  0  0  0  0
  7  8  1  0  0  0  0
  7 12  1  0  0  0  0
  8  9  1  0  0  0  0
  8 18  1  0  0  0  0
  8 19  1  0  0  0  0
  9 10  1  0  0  0  0
  9 20  1  0  0  0  0
  9 21  1  0  0  0  0
 10 11  1  0  0  0  0
 10 22  1  0  0  0  0
 10 27  1  0  0  0  0
 11 12  1  0  0  0  0
 11 23  1  0  0  0  0
 11 24  1  0  0  0  0
 12 25  1  0  0  0  0
 12 26  1  0  0  0  0
M  END
$$$$
