19
  PyMOL2.4          3D                             0

 31 33  0  0  0  0  0  0  0  0999 V2000
   55.4325   38.6802   58.6596 C   0  0  0  0  0  0  0  0  0  0  0  0
   55.3750   38.9675   60.0376 C   0  0  0  0  0  0  0  0  0  0  0  0
   54.2925   38.5361   60.8578 C   0  0  0  0  0  0  0  0  0  0  0  0
   53.2252   37.8377   60.2297 C   0  0  0  0  0  0  0  0  0  0  0  0
   53.2592   37.5870   58.8383 C   0  0  0  0  0  0  0  0  0  0  0  0
   54.3752   37.9684   58.0639 C   0  0  0  0  0  0  0  0  0  0  0  0
   52.1560   37.3764   61.0072 N   0  0  0  0  0  0  0  0  0  0  0  0
   52.4143   36.2569   61.9019 C   0  0  0  0  0  0  0  0  0  0  0  0
   51.4269   36.2898   63.0805 C   0  0  0  0  0  0  0  0  0  0  0  0
   50.0263   36.4398   62.6192 N   0  3  0  0  0  0  0  0  0  0  0  0
   49.8080   37.5269   61.6393 C   0  0  0  0  0  0  0  0  0  0  0  0
   50.8052   37.4562   60.4743 C   0  0  0  0  0  0  0  0  0  0  0  0
   54.5784   38.9446   62.2089 C   0  0  0  0  0  0  0  0  0  0  0  0
   55.7791   39.6033   62.1830 C   0  0  0  0  0  0  0  0  0  0  0  0
   56.2438   39.6326   60.8792 N   0  0  0  0  0  0  0  0  0  0  0  0
   56.2874   38.9930   58.0749 H   0  0  0  0  0  0  0  0  0  0  0  0
   52.4564   37.0424   58.3686 H   0  0  0  0  0  0  0  0  0  0  0  0
   54.4069   37.7265   57.0116 H   0  0  0  0  0  0  0  0  0  0  0  0
   52.2909   35.3315   61.3358 H   0  0  0  0  0  0  0  0  0  0  0  0
   53.4411   36.2630   62.2716 H   0  0  0  0  0  0  0  0  0  0  0  0
   51.6659   37.1259   63.7356 H   0  0  0  0  0  0  0  0  0  0  0  0
   51.5131   35.3811   63.6764 H   0  0  0  0  0  0  0  0  0  0  0  0
   49.4194   36.5866   63.4189 H   0  0  0  0  0  0  0  0  0  0  0  0
   49.8998   38.4805   62.1556 H   0  0  0  0  0  0  0  0  0  0  0  0
   48.7861   37.4648   61.2666 H   0  0  0  0  0  0  0  0  0  0  0  0
   50.6954   38.3376   59.8437 H   0  0  0  0  0  0  0  0  0  0  0  0
   50.6030   36.5805   59.8538 H   0  0  0  0  0  0  0  0  0  0  0  0
   53.9654   38.7438   63.0729 H   0  0  0  0  0  0  0  0  0  0  0  0
   56.3411   40.0548   62.9868 H   0  0  0  0  0  0  0  0  0  0  0  0
   57.1238   40.0518   60.6112 H   0  0  0  0  0  0  0  0  0  0  0  0
   49.7341   35.5768   62.1426 H   0  0  0  0  0  0  0  0  0  0  0  0
  1  2  2  0  0  0  0
  1  6  1  0  0  0  0
  1 16  1  0  0  0  0
  2  3  1  0  0  0  0
  2 15  1  0  0  0  0
  3  4  2  0  0  0  0
  3 13  1  0  0  0  0
  4  5  1  0  0  0  0
  4  7  1  0  0  0  0
  5  6  2  0  0  0  0
  5 17  1  0  0  0  0
  6 18  1  0  0  0  0
  7  8  1  0  0  0  0
  7 12  1  0  0  0  0
  8  9  1  0  0  0  0
  8 19  1  0  0  0  0
  8 20  1  0  0  0  0
  9 10  1  0  0  0  0
  9 21  1  0  0  0  0
  9 22  1  0  0  0  0
 10 11  1  0  0  0  0
 10 23  1  0  0  0  0
 10 31  1  0  0  0  0
 11 12  1  0  0  0  0
 11 24  1  0  0  0  0
 11 25  1  0  0  0  0
 12 26  1  0  0  0  0
 12 27  1  0  0  0  0
 13 14  2  0  0  0  0
 13 28  1  0  0  0  0
 14 15  1  0  0  0  0
 14 29  1  0  0  0  0
 15 30  1  0  0  0  0
M  END
$$$$
