9
  PyMOL2.4          3D                             0

 27 28  0  0  0  0  0  0  0  0999 V2000
   55.4317   38.6750   58.6713 C   0  0  0  0  0  0  0  0  0  0  0  0
   54.3785   37.9645   58.0638 C   0  0  0  0  0  0  0  0  0  0  0  0
   53.2507   37.5883   58.8298 C   0  0  0  0  0  0  0  0  0  0  0  0
   53.2240   37.8240   60.2212 C   0  0  0  0  0  0  0  0  0  0  0  0
   54.3013   38.5122   60.8251 C   0  0  0  0  0  0  0  0  0  0  0  0
   55.3796   38.9680   60.0471 C   0  0  0  0  0  0  0  0  0  0  0  0
   52.1583   37.3935   61.0288 N   0  0  0  0  0  0  0  0  0  0  0  0
   52.4171   36.2537   61.8948 C   0  0  0  0  0  0  0  0  0  0  0  0
   51.4386   36.2701   63.0826 C   0  0  0  0  0  0  0  0  0  0  0  0
   50.0361   36.4209   62.6294 N   0  3  0  0  0  0  0  0  0  0  0  0
   49.8120   37.5169   61.6620 C   0  0  0  0  0  0  0  0  0  0  0  0
   50.8061   37.4636   60.4934 C   0  0  0  0  0  0  0  0  0  0  0  0
   56.2729   39.0100   58.0804 H   0  0  0  0  0  0  0  0  0  0  0  0
   54.4047   37.7636   57.0033 H   0  0  0  0  0  0  0  0  0  0  0  0
   52.4440   37.0593   58.3443 H   0  0  0  0  0  0  0  0  0  0  0  0
   54.2849   38.7230   61.8871 H   0  0  0  0  0  0  0  0  0  0  0  0
   56.1891   39.5129   60.5137 H   0  0  0  0  0  0  0  0  0  0  0  0
   52.2948   35.3282   61.3283 H   0  0  0  0  0  0  0  0  0  0  0  0
   53.4481   36.2667   62.2497 H   0  0  0  0  0  0  0  0  0  0  0  0
   51.6821   37.1069   63.7445 H   0  0  0  0  0  0  0  0  0  0  0  0
   51.5386   35.3605   63.6750 H   0  0  0  0  0  0  0  0  0  0  0  0
   49.4414   36.5739   63.4344 H   0  0  0  0  0  0  0  0  0  0  0  0
   49.9036   38.4694   62.1866 H   0  0  0  0  0  0  0  0  0  0  0  0
   48.7887   37.4628   61.2909 H   0  0  0  0  0  0  0  0  0  0  0  0
   50.6953   38.3443   59.8641 H   0  0  0  0  0  0  0  0  0  0  0  0
   50.6013   36.5926   59.8716 H   0  0  0  0  0  0  0  0  0  0  0  0
   49.7429   35.5524   62.1537 H   0  0  0  0  0  0  0  0  0  0  0  0
  1  2  2  0  0  0  0
  1  6  1  0  0  0  0
  1 13  1  0  0  0  0
  2  3  1  0  0  0  0
  2 14  1  0  0  0  0
  3  4  2  0  0  0  0
  3 15  1  0  0  0  0
  4  5  1  0  0  0  0
  4  7  1  0  0  0  0
  5  6  2  0  0  0  0
  5 16  1  0  0  0  0
  6 17  1  0  0  0  0
  7  8  1  0  0  0  0
  7 12  1  0  0  0  0
  8  9  1  0  0  0  0
  8 18  1  0  0  0  0
  8 19  1  0  0  0  0
  9 10  1  0  0  0  0
  9 20  1  0  0  0  0
  9 21  1  0  0  0  0
 10 11  1  0  0  0  0
 10 22  1  0  0  0  0
 10 27  1  0  0  0  0
 11 12  1  0  0  0  0
 11 23  1  0  0  0  0
 11 24  1  0  0  0  0
 12 25  1  0  0  0  0
 12 26  1  0  0  0  0
M  END
$$$$
