Structure33_molecule1
  PyMOL2.6          3D                             0

 26 27  0  0  1  0  0  0  0  0999 V2000
   61.3732   39.6222   72.1622 C   0  0  0  0  0  0  0  0  0  0  0  0
   61.3960   39.5014   70.6775 C   0  0  0  0  0  0  0  0  0  0  0  0
   60.3329   39.9453   69.9368 C   0  0  0  0  0  0  0  0  0  0  0  0
   59.1840   40.7069   70.5435 C   0  0  2  0  0  0  0  0  0  0  0  0
   58.9657   40.1254   71.8262 O   0  0  0  0  0  0  0  0  0  0  0  0
   60.1168   40.3617   72.6510 C   0  0  0  0  0  0  0  0  0  0  0  0
   60.5362   39.5667   68.2455 S   0  0  0  0  0  0  0  0  0  0  0  0
   62.0586   38.7945   68.5875 C   0  0  0  0  0  0  0  0  0  0  0  0
   62.3930   38.8544   69.9083 C   0  0  0  0  0  0  0  0  0  0  0  0
   57.9360   40.8099   69.7021 C   0  0  0  0  0  0  0  0  0  0  0  0
   56.9502   41.8053   70.1742 N   0  3  0  0  0  0  0  0  0  0  0  0
   57.3499   43.2188   70.1127 C   0  0  0  0  0  0  0  0  0  0  0  0
   62.2612   40.1576   72.4962 H   0  0  0  0  0  0  0  0  0  0  0  0
   61.4048   38.6282   72.6072 H   0  0  0  0  0  0  0  0  0  0  0  0
   59.5343   41.7244   70.7145 H   0  0  0  0  0  0  0  0  0  0  0  0
   60.3191   41.4316   72.6920 H   0  0  0  0  0  0  0  0  0  0  0  0
   59.8957   40.0630   73.6759 H   0  0  0  0  0  0  0  0  0  0  0  0
   62.7164   38.3040   67.8846 H   0  0  0  0  0  0  0  0  0  0  0  0
   63.2852   38.4802   70.3870 H   0  0  0  0  0  0  0  0  0  0  0  0
   57.4602   39.8316   69.6416 H   0  0  0  0  0  0  0  0  0  0  0  0
   58.2126   41.0353   68.6719 H   0  0  0  0  0  0  0  0  0  0  0  0
   56.6754   41.5794   71.1197 H   0  0  0  0  0  0  0  0  0  0  0  0
   56.0860   41.6822   69.6671 H   0  0  0  0  0  0  0  0  0  0  0  0
   56.5388   43.8432   70.4873 H   0  0  0  0  0  0  0  0  0  0  0  0
   58.2376   43.3727   70.7253 H   0  0  0  0  0  0  0  0  0  0  0  0
   57.5700   43.4893   69.0798 H   0  0  0  0  0  0  0  0  0  0  0  0
  1  2  1  0  0  0  0
  1  6  1  0  0  0  0
  1 13  1  0  0  0  0
  1 14  1  0  0  0  0
  2  3  2  0  0  0  0
  2  9  1  0  0  0  0
  3  4  1  0  0  0  0
  3  7  1  0  0  0  0
  4  5  1  0  0  0  0
  4 10  1  0  0  0  0
  4 15  1  0  0  0  0
  5  6  1  0  0  0  0
  6 16  1  0  0  0  0
  6 17  1  0  0  0  0
  7  8  1  0  0  0  0
  8  9  2  0  0  0  0
  8 18  1  0  0  0  0
  9 19  1  0  0  0  0
 10 11  1  0  0  0  0
 10 20  1  0  0  0  0
 10 21  1  0  0  0  0
 11 12  1  0  0  0  0
 11 22  1  0  0  0  0
 11 23  1  0  0  0  0
 12 24  1  0  0  0  0
 12 25  1  0  0  0  0
 12 26  1  0  0  0  0
M  END
$$$$
