Structure33_molecule2
  PyMOL2.6          3D                             0

 29 30  0  0  1  0  0  0  0  0999 V2000
   61.5393   39.5812   72.0966 C   0  0  0  0  0  0  0  0  0  0  0  0
   61.3806   39.5130   70.6213 C   0  0  0  0  0  0  0  0  0  0  0  0
   60.2325   39.9785   70.0293 C   0  0  0  0  0  0  0  0  0  0  0  0
   59.0493   40.5760   70.7340 C   0  0  1  0  0  0  0  0  0  0  0  0
   59.4057   40.8232   72.1052 O   0  0  0  0  0  0  0  0  0  0  0  0
   60.1874   39.8166   72.7699 C   0  0  0  0  0  0  0  0  0  0  0  0
   60.2675   39.7756   68.3102 S   0  0  0  0  0  0  0  0  0  0  0  0
   61.8645   39.1390   68.4159 C   0  0  0  0  0  0  0  0  0  0  0  0
   62.3316   39.0330   69.6917 C   0  0  0  0  0  0  0  0  0  0  0  0
   58.5446   41.8875   70.0726 C   0  0  0  0  0  0  0  0  0  0  0  0
   57.2266   42.3321   70.5809 N   0  3  0  0  0  0  0  0  0  0  0  0
   56.6705   43.4718   69.8356 C   0  0  0  0  0  0  0  0  0  0  0  0
   57.9043   39.6345   70.8177 C   0  0  0  0  0  0  0  0  0  0  0  0
   62.2172   40.3950   72.3516 H   0  0  0  0  0  0  0  0  0  0  0  0
   61.9673   38.6469   72.4585 H   0  0  0  0  0  0  0  0  0  0  0  0
   60.3447   40.1079   73.8088 H   0  0  0  0  0  0  0  0  0  0  0  0
   59.6283   38.8819   72.7949 H   0  0  0  0  0  0  0  0  0  0  0  0
   62.4855   38.8354   67.5855 H   0  0  0  0  0  0  0  0  0  0  0  0
   63.2792   38.6499   70.0387 H   0  0  0  0  0  0  0  0  0  0  0  0
   58.4893   41.7496   68.9923 H   0  0  0  0  0  0  0  0  0  0  0  0
   59.2778   42.6776   70.2308 H   0  0  0  0  0  0  0  0  0  0  0  0
   57.3082   42.5779   71.5576 H   0  0  0  0  0  0  0  0  0  0  0  0
   56.5770   41.5602   70.5467 H   0  0  0  0  0  0  0  0  0  0  0  0
   55.7046   43.7469   70.2593 H   0  0  0  0  0  0  0  0  0  0  0  0
   57.3513   44.3194   69.9060 H   0  0  0  0  0  0  0  0  0  0  0  0
   56.5431   43.1946   68.7887 H   0  0  0  0  0  0  0  0  0  0  0  0
   57.0749   40.1158   71.3363 H   0  0  0  0  0  0  0  0  0  0  0  0
   57.5907   39.3531   69.8122 H   0  0  0  0  0  0  0  0  0  0  0  0
   58.2061   38.7428   71.3663 H   0  0  0  0  0  0  0  0  0  0  0  0
  1  2  1  0  0  0  0
  1  6  1  0  0  0  0
  1 14  1  0  0  0  0
  1 15  1  0  0  0  0
  2  3  2  0  0  0  0
  2  9  1  0  0  0  0
  3  4  1  0  0  0  0
  3  7  1  0  0  0  0
  4  5  1  0  0  0  0
  4 10  1  0  0  0  0
  4 13  1  0  0  0  0
  5  6  1  0  0  0  0
  6 16  1  0  0  0  0
  6 17  1  0  0  0  0
  7  8  1  0  0  0  0
  8  9  2  0  0  0  0
  8 18  1  0  0  0  0
  9 19  1  0  0  0  0
 10 11  1  0  0  0  0
 10 20  1  0  0  0  0
 10 21  1  0  0  0  0
 11 12  1  0  0  0  0
 11 22  1  0  0  0  0
 11 23  1  0  0  0  0
 12 24  1  0  0  0  0
 12 25  1  0  0  0  0
 12 26  1  0  0  0  0
 13 27  1  0  0  0  0
 13 28  1  0  0  0  0
 13 29  1  0  0  0  0
M  END
$$$$
