Structure33_molecule4
  PyMOL2.6          3D                             0

 29 30  0  0  1  0  0  0  0  0999 V2000
   60.7449   39.6209   72.2140 C   0  0  0  0  0  0  0  0  0  0  0  0
   60.9893   39.5117   70.7356 C   0  0  0  0  0  0  0  0  0  0  0  0
   59.9957   39.7497   69.8224 C   0  0  0  0  0  0  0  0  0  0  0  0
   58.6053   40.1653   70.1619 C   0  0  1  0  0  0  0  0  0  0  0  0
   58.4236   39.7936   71.5263 O   0  0  0  0  0  0  0  0  0  0  0  0
   59.4045   40.3215   72.4082 C   0  0  0  0  0  0  0  0  0  0  0  0
   60.5504   39.5559   68.1903 S   0  0  0  0  0  0  0  0  0  0  0  0
   62.1563   39.1994   68.7617 C   0  0  0  0  0  0  0  0  0  0  0  0
   62.2193   39.1456   70.1250 C   0  0  0  0  0  0  0  0  0  0  0  0
   58.3616   41.6616   69.9022 C   0  0  0  0  0  0  0  0  0  0  0  0
   56.9813   42.0808   70.2175 N   0  3  0  0  0  0  0  0  0  0  0  0
   56.7631   42.2156   71.6675 C   0  0  0  0  0  0  0  0  0  0  0  0
   56.5711   43.2929   69.4776 C   0  0  0  0  0  0  0  0  0  0  0  0
   61.5346   40.2176   72.6694 H   0  0  0  0  0  0  0  0  0  0  0  0
   60.6986   38.6227   72.6482 H   0  0  0  0  0  0  0  0  0  0  0  0
   57.9124   39.5892   69.5493 H   0  0  0  0  0  0  0  0  0  0  0  0
   59.5224   41.3886   72.2227 H   0  0  0  0  0  0  0  0  0  0  0  0
   59.0733   40.1935   73.4391 H   0  0  0  0  0  0  0  0  0  0  0  0
   63.0452   39.0290   68.1721 H   0  0  0  0  0  0  0  0  0  0  0  0
   63.0638   38.8683   70.7377 H   0  0  0  0  0  0  0  0  0  0  0  0
   58.5799   41.8875   68.8582 H   0  0  0  0  0  0  0  0  0  0  0  0
   59.0619   42.2507   70.4939 H   0  0  0  0  0  0  0  0  0  0  0  0
   56.3771   41.3352   69.9040 H   0  0  0  0  0  0  0  0  0  0  0  0
   55.7351   42.5254   71.8541 H   0  0  0  0  0  0  0  0  0  0  0  0
   56.9470   41.2579   72.1533 H   0  0  0  0  0  0  0  0  0  0  0  0
   57.4453   42.9635   72.0705 H   0  0  0  0  0  0  0  0  0  0  0  0
   55.5485   43.5554   69.7479 H   0  0  0  0  0  0  0  0  0  0  0  0
   57.2360   44.1173   69.7331 H   0  0  0  0  0  0  0  0  0  0  0  0
   56.6260   43.1006   68.4055 H   0  0  0  0  0  0  0  0  0  0  0  0
  1  2  1  0  0  0  0
  1  6  1  0  0  0  0
  1 14  1  0  0  0  0
  1 15  1  0  0  0  0
  2  3  2  0  0  0  0
  2  9  1  0  0  0  0
  3  4  1  0  0  0  0
  3  7  1  0  0  0  0
  4  5  1  0  0  0  0
  4 10  1  0  0  0  0
  4 16  1  0  0  0  0
  5  6  1  0  0  0  0
  6 17  1  0  0  0  0
  6 18  1  0  0  0  0
  7  8  1  0  0  0  0
  8  9  2  0  0  0  0
  8 19  1  0  0  0  0
  9 20  1  0  0  0  0
 10 11  1  0  0  0  0
 10 21  1  0  0  0  0
 10 22  1  0  0  0  0
 11 12  1  0  0  0  0
 11 13  1  0  0  0  0
 11 23  1  0  0  0  0
 12 24  1  0  0  0  0
 12 25  1  0  0  0  0
 12 26  1  0  0  0  0
 13 27  1  0  0  0  0
 13 28  1  0  0  0  0
 13 29  1  0  0  0  0
M  END
$$$$
