Structure33_molecule6
  PyMOL2.6          3D                             0

 26 27  0  0  1  0  0  0  0  0999 V2000
   60.7406   39.6182   72.2136 C   0  0  0  0  0  0  0  0  0  0  0  0
   60.9899   39.5144   70.7358 C   0  0  0  0  0  0  0  0  0  0  0  0
   59.9957   39.7518   69.8237 C   0  0  0  0  0  0  0  0  0  0  0  0
   58.6041   40.1682   70.1676 C   0  0  1  0  0  0  0  0  0  0  0  0
   58.4030   39.8208   71.5353 O   0  0  0  0  0  0  0  0  0  0  0  0
   59.4015   40.3243   72.4091 C   0  0  0  0  0  0  0  0  0  0  0  0
   60.5504   39.5559   68.1903 S   0  0  0  0  0  0  0  0  0  0  0  0
   62.1561   39.1995   68.7607 C   0  0  0  0  0  0  0  0  0  0  0  0
   62.2193   39.1456   70.1250 C   0  0  0  0  0  0  0  0  0  0  0  0
   58.3508   41.6591   69.8990 C   0  0  0  0  0  0  0  0  0  0  0  0
   56.9186   42.0941   70.2224 C   0  0  0  0  0  0  0  0  0  0  0  0
   56.5922   43.3845   69.5944 N   0  3  0  0  0  0  0  0  0  0  0  0
   61.5318   40.2084   72.6748 H   0  0  0  0  0  0  0  0  0  0  0  0
   60.6895   38.6184   72.6435 H   0  0  0  0  0  0  0  0  0  0  0  0
   57.9121   39.5866   69.5591 H   0  0  0  0  0  0  0  0  0  0  0  0
   59.5269   41.3931   72.2386 H   0  0  0  0  0  0  0  0  0  0  0  0
   59.0746   40.2036   73.4423 H   0  0  0  0  0  0  0  0  0  0  0  0
   63.0449   39.0292   68.1710 H   0  0  0  0  0  0  0  0  0  0  0  0
   63.0633   38.8666   70.7376 H   0  0  0  0  0  0  0  0  0  0  0  0
   58.5699   41.8803   68.8542 H   0  0  0  0  0  0  0  0  0  0  0  0
   59.0501   42.2562   70.4837 H   0  0  0  0  0  0  0  0  0  0  0  0
   56.7987   42.1763   71.3032 H   0  0  0  0  0  0  0  0  0  0  0  0
   56.2216   41.3337   69.8717 H   0  0  0  0  0  0  0  0  0  0  0  0
   55.6438   43.6420   69.8266 H   0  0  0  0  0  0  0  0  0  0  0  0
   57.2250   44.0942   69.9339 H   0  0  0  0  0  0  0  0  0  0  0  0
   56.6836   43.3038   68.5913 H   0  0  0  0  0  0  0  0  0  0  0  0
  1  2  1  0  0  0  0
  1  6  1  0  0  0  0
  1 13  1  0  0  0  0
  1 14  1  0  0  0  0
  2  3  2  0  0  0  0
  2  9  1  0  0  0  0
  3  4  1  0  0  0  0
  3  7  1  0  0  0  0
  4  5  1  0  0  0  0
  4 10  1  0  0  0  0
  4 15  1  0  0  0  0
  5  6  1  0  0  0  0
  6 16  1  0  0  0  0
  6 17  1  0  0  0  0
  7  8  1  0  0  0  0
  8  9  2  0  0  0  0
  8 18  1  0  0  0  0
  9 19  1  0  0  0  0
 10 11  1  0  0  0  0
 10 20  1  0  0  0  0
 10 21  1  0  0  0  0
 11 12  1  0  0  0  0
 11 22  1  0  0  0  0
 11 23  1  0  0  0  0
 12 24  1  0  0  0  0
 12 25  1  0  0  0  0
 12 26  1  0  0  0  0
M  END
$$$$
