lig1 - preprocessed
  PyMOL2.4          3D                             0

 36 38  0  0  0  0  0  0  0  0999 V2000
   42.5450   44.8560   70.3890 N   0  0  0  0  0  0  0  0  0  0  0  0
   40.9720   44.9570   68.5670 N   0  0  0  0  0  0  0  0  0  0  0  0
   41.7950   43.7420   66.5710 N   0  0  0  0  0  0  0  0  0  0  0  0
   43.7720   42.9750   67.4080 N   0  0  0  0  0  0  0  0  0  0  0  0
   43.2700   42.2380   65.2190 N   0  0  0  0  0  0  0  0  0  0  0  0
   44.5270   41.7500   64.9920 N   0  0  0  0  0  0  0  0  0  0  0  0
   42.3660   41.9200   64.2500 N   0  0  0  0  0  0  0  0  0  0  0  0
   44.5620   43.7290   70.3040 N   0  0  0  0  0  0  0  0  0  0  0  0
   41.3930   45.2180   69.8100 C   0  0  0  0  0  0  0  0  0  0  0  0
   41.8810   44.2120   67.8700 C   0  0  0  0  0  0  0  0  0  0  0  0
   43.1290   43.7490   68.3620 C   0  0  0  0  0  0  0  0  0  0  0  0
   43.4360   44.1120   69.6940 C   0  0  0  0  0  0  0  0  0  0  0  0
   42.9500   42.9840   66.3920 C   0  0  0  0  0  0  0  0  0  0  0  0
   44.4090   41.1320   63.8460 C   0  0  0  0  0  0  0  0  0  0  0  0
   43.0760   41.2380   63.3890 C   0  0  0  0  0  0  0  0  0  0  0  0
   40.4650   46.0720   70.6560 C   0  0  0  0  0  0  0  0  0  0  0  0
   40.6460   47.5710   70.3850 C   0  0  0  0  0  0  0  0  0  0  0  0
   40.7000   43.9880   65.6480 C   0  0  0  0  0  0  0  0  0  0  0  0
   39.7430   48.4510   71.2620 C   0  0  0  0  0  0  0  0  0  0  0  0
   39.8350   49.9370   70.8930 C   0  0  0  0  0  0  0  0  0  0  0  0
   45.2423   43.1731   69.8058 H   0  0  0  0  0  0  0  0  0  0  0  0
   44.7325   43.9955   71.2632 H   0  0  0  0  0  0  0  0  0  0  0  0
   45.2662   40.6461   63.4037 H   0  0  0  0  0  0  0  0  0  0  0  0
   42.6141   40.8556   62.4907 H   0  0  0  0  0  0  0  0  0  0  0  0
   40.6479   45.8698   71.7113 H   0  0  0  0  0  0  0  0  0  0  0  0
   39.4311   45.7900   70.4571 H   0  0  0  0  0  0  0  0  0  0  0  0
   40.4414   47.7763   69.3342 H   0  0  0  0  0  0  0  0  0  0  0  0
   41.6881   47.8453   70.5487 H   0  0  0  0  0  0  0  0  0  0  0  0
   39.9597   44.6304   66.1247 H   0  0  0  0  0  0  0  0  0  0  0  0
   41.0822   44.4776   64.7522 H   0  0  0  0  0  0  0  0  0  0  0  0
   40.2356   43.0408   65.3737 H   0  0  0  0  0  0  0  0  0  0  0  0
   40.0161   48.3201   72.3091 H   0  0  0  0  0  0  0  0  0  0  0  0
   38.7096   48.1174   71.1673 H   0  0  0  0  0  0  0  0  0  0  0  0
   39.1775   50.5146   71.5427 H   0  0  0  0  0  0  0  0  0  0  0  0
   40.8619   50.2801   71.0185 H   0  0  0  0  0  0  0  0  0  0  0  0
   39.5310   50.0737   69.8552 H   0  0  0  0  0  0  0  0  0  0  0  0
  1  9  1  0  0  0  0
  1 12  2  0  0  0  0
  2  9  2  0  0  0  0
  2 10  1  0  0  0  0
  3 10  1  0  0  0  0
  3 13  1  0  0  0  0
  3 18  1  0  0  0  0
  4 11  1  0  0  0  0
  4 13  2  0  0  0  0
  5  6  1  0  0  0  0
  5  7  1  0  0  0  0
  5 13  1  0  0  0  0
  6 14  2  0  0  0  0
  7 15  2  0  0  0  0
  8 12  1  0  0  0  0
  8 21  1  0  0  0  0
  8 22  1  0  0  0  0
  9 16  1  0  0  0  0
 10 11  2  0  0  0  0
 11 12  1  0  0  0  0
 14 15  1  0  0  0  0
 14 23  1  0  0  0  0
 15 24  1  0  0  0  0
 16 17  1  0  0  0  0
 16 25  1  0  0  0  0
 16 26  1  0  0  0  0
 17 19  1  0  0  0  0
 17 27  1  0  0  0  0
 17 28  1  0  0  0  0
 18 29  1  0  0  0  0
 18 30  1  0  0  0  0
 18 31  1  0  0  0  0
 19 20  1  0  0  0  0
 19 32  1  0  0  0  0
 19 33  1  0  0  0  0
 20 34  1  0  0  0  0
 20 35  1  0  0  0  0
 20 36  1  0  0  0  0
M  END
$$$$
