lig2 - preprocessed
  PyMOL2.4          3D                             0

 33 35  0  0  0  0  0  0  0  0999 V2000
   42.5310   44.9290   70.3070 N   0  0  0  0  0  0  0  0  0  0  0  0
   40.9410   44.9560   68.5030 N   0  0  0  0  0  0  0  0  0  0  0  0
   41.7720   43.7210   66.5230 N   0  0  0  0  0  0  0  0  0  0  0  0
   43.7520   42.9780   67.3760 N   0  0  0  0  0  0  0  0  0  0  0  0
   43.2630   42.2200   65.1950 N   0  0  0  0  0  0  0  0  0  0  0  0
   42.3670   41.8680   64.2290 N   0  0  0  0  0  0  0  0  0  0  0  0
   44.5300   41.7640   64.9750 N   0  0  0  0  0  0  0  0  0  0  0  0
   44.5320   43.7640   70.2620 N   0  0  0  0  0  0  0  0  0  0  0  0
   41.3640   45.2610   69.7370 C   0  0  0  0  0  0  0  0  0  0  0  0
   41.8550   44.2100   67.8170 C   0  0  0  0  0  0  0  0  0  0  0  0
   43.1050   43.7610   68.3170 C   0  0  0  0  0  0  0  0  0  0  0  0
   43.4130   44.1530   69.6380 C   0  0  0  0  0  0  0  0  0  0  0  0
   42.9310   42.9720   66.3580 C   0  0  0  0  0  0  0  0  0  0  0  0
   43.0960   41.1920   63.3780 C   0  0  0  0  0  0  0  0  0  0  0  0
   44.4300   41.1260   63.8370 C   0  0  0  0  0  0  0  0  0  0  0  0
   40.4300   46.1470   70.5580 C   0  0  0  0  0  0  0  0  0  0  0  0
   40.3990   45.7560   72.0420 C   0  0  0  0  0  0  0  0  0  0  0  0
   40.6810   43.9440   65.5900 C   0  0  0  0  0  0  0  0  0  0  0  0
   40.7310   47.6410   70.3860 C   0  0  0  0  0  0  0  0  0  0  0  0
   45.2036   43.1840   69.7797 H   0  0  0  0  0  0  0  0  0  0  0  0
   44.7044   44.0505   71.2150 H   0  0  0  0  0  0  0  0  0  0  0  0
   42.6455   40.7854   62.4846 H   0  0  0  0  0  0  0  0  0  0  0  0
   45.3002   40.6558   63.4032 H   0  0  0  0  0  0  0  0  0  0  0  0
   39.4242   45.9842   70.1708 H   0  0  0  0  0  0  0  0  0  0  0  0
   39.7195   46.4181   72.5786 H   0  0  0  0  0  0  0  0  0  0  0  0
   40.0550   44.7264   72.1399 H   0  0  0  0  0  0  0  0  0  0  0  0
   41.4005   45.8455   72.4628 H   0  0  0  0  0  0  0  0  0  0  0  0
   39.9317   44.5861   66.0531 H   0  0  0  0  0  0  0  0  0  0  0  0
   41.0644   44.4246   64.6900 H   0  0  0  0  0  0  0  0  0  0  0  0
   40.2271   42.9888   65.3259 H   0  0  0  0  0  0  0  0  0  0  0  0
   40.0373   48.2240   70.9918 H   0  0  0  0  0  0  0  0  0  0  0  0
   41.7527   47.8455   70.7061 H   0  0  0  0  0  0  0  0  0  0  0  0
   40.6172   47.9167   69.3376 H   0  0  0  0  0  0  0  0  0  0  0  0
  1  9  1  0  0  0  0
  1 12  2  0  0  0  0
  2  9  2  0  0  0  0
  2 10  1  0  0  0  0
  3 10  1  0  0  0  0
  3 13  1  0  0  0  0
  3 18  1  0  0  0  0
  4 11  1  0  0  0  0
  4 13  2  0  0  0  0
  5  6  1  0  0  0  0
  5  7  1  0  0  0  0
  5 13  1  0  0  0  0
  6 14  2  0  0  0  0
  7 15  2  0  0  0  0
  8 12  1  0  0  0  0
  8 20  1  0  0  0  0
  8 21  1  0  0  0  0
  9 16  1  0  0  0  0
 10 11  2  0  0  0  0
 11 12  1  0  0  0  0
 14 15  1  0  0  0  0
 14 22  1  0  0  0  0
 15 23  1  0  0  0  0
 16 17  1  0  0  0  0
 16 19  1  0  0  0  0
 16 24  1  0  0  0  0
 17 25  1  0  0  0  0
 17 26  1  0  0  0  0
 17 27  1  0  0  0  0
 18 28  1  0  0  0  0
 18 29  1  0  0  0  0
 18 30  1  0  0  0  0
 19 31  1  0  0  0  0
 19 32  1  0  0  0  0
 19 33  1  0  0  0  0
M  END
$$$$
