lig3 - preprocessed
  PyMOL2.4          3D                             0

 40 43  0  0  0  0  0  0  0  0999 V2000
   42.5130   44.7710   70.3840 N   0  0  0  0  0  0  0  0  0  0  0  0
   40.9930   44.9560   68.5240 N   0  0  0  0  0  0  0  0  0  0  0  0
   41.8270   43.7590   66.5260 N   0  0  0  0  0  0  0  0  0  0  0  0
   43.7930   42.9800   67.3770 N   0  0  0  0  0  0  0  0  0  0  0  0
   43.2810   42.2340   65.1950 N   0  0  0  0  0  0  0  0  0  0  0  0
   42.3730   41.9080   64.2320 N   0  0  0  0  0  0  0  0  0  0  0  0
   44.5300   41.7340   64.9760 N   0  0  0  0  0  0  0  0  0  0  0  0
   44.5330   43.6480   70.3070 N   0  0  0  0  0  0  0  0  0  0  0  0
   41.3780   45.1570   69.7890 C   0  0  0  0  0  0  0  0  0  0  0  0
   41.9080   44.2220   67.8290 C   0  0  0  0  0  0  0  0  0  0  0  0
   43.1450   43.7430   68.3330 C   0  0  0  0  0  0  0  0  0  0  0  0
   43.4240   44.0610   69.6820 C   0  0  0  0  0  0  0  0  0  0  0  0
   42.9720   42.9930   66.3590 C   0  0  0  0  0  0  0  0  0  0  0  0
   43.0780   41.2120   63.3790 C   0  0  0  0  0  0  0  0  0  0  0  0
   44.4090   41.1020   63.8360 C   0  0  0  0  0  0  0  0  0  0  0  0
   40.3960   45.9140   70.6600 C   0  0  0  0  0  0  0  0  0  0  0  0
   40.7650   47.3980   70.7990 C   0  0  0  0  0  0  0  0  0  0  0  0
   40.7440   44.0190   65.5930 C   0  0  0  0  0  0  0  0  0  0  0  0
   39.7270   48.1880   71.5780 C   0  0  0  0  0  0  0  0  0  0  0  0
   39.0910   49.3000   70.9850 C   0  0  0  0  0  0  0  0  0  0  0  0
   38.1200   50.0260   71.7020 C   0  0  0  0  0  0  0  0  0  0  0  0
   37.7810   49.6440   73.0150 C   0  0  0  0  0  0  0  0  0  0  0  0
   38.4130   48.5360   73.6100 C   0  0  0  0  0  0  0  0  0  0  0  0
   39.3860   47.8110   72.8950 C   0  0  0  0  0  0  0  0  0  0  0  0
   45.2282   43.1160   69.8033 H   0  0  0  0  0  0  0  0  0  0  0  0
   44.6748   43.8684   71.2824 H   0  0  0  0  0  0  0  0  0  0  0  0
   42.6135   40.8227   62.4851 H   0  0  0  0  0  0  0  0  0  0  0  0
   45.2635   40.6054   63.4005 H   0  0  0  0  0  0  0  0  0  0  0  0
   40.3597   45.4554   71.6482 H   0  0  0  0  0  0  0  0  0  0  0  0
   39.3951   45.8275   70.2372 H   0  0  0  0  0  0  0  0  0  0  0  0
   40.8848   47.8359   69.8080 H   0  0  0  0  0  0  0  0  0  0  0  0
   41.7328   47.4859   71.2928 H   0  0  0  0  0  0  0  0  0  0  0  0
   40.0057   44.6677   66.0642 H   0  0  0  0  0  0  0  0  0  0  0  0
   41.1402   44.5071   64.7025 H   0  0  0  0  0  0  0  0  0  0  0  0
   40.2725   43.0775   65.3113 H   0  0  0  0  0  0  0  0  0  0  0  0
   39.3485   49.5962   69.9788 H   0  0  0  0  0  0  0  0  0  0  0  0
   37.6349   50.8760   71.2453 H   0  0  0  0  0  0  0  0  0  0  0  0
   37.0366   50.2012   73.5643 H   0  0  0  0  0  0  0  0  0  0  0  0
   38.1519   48.2411   74.6156 H   0  0  0  0  0  0  0  0  0  0  0  0
   39.8717   46.9643   73.3572 H   0  0  0  0  0  0  0  0  0  0  0  0
  1  9  1  0  0  0  0
  1 12  2  0  0  0  0
  2  9  2  0  0  0  0
  2 10  1  0  0  0  0
  3 10  1  0  0  0  0
  3 13  1  0  0  0  0
  3 18  1  0  0  0  0
  4 11  1  0  0  0  0
  4 13  2  0  0  0  0
  5  6  1  0  0  0  0
  5  7  1  0  0  0  0
  5 13  1  0  0  0  0
  6 14  2  0  0  0  0
  7 15  2  0  0  0  0
  8 12  1  0  0  0  0
  8 25  1  0  0  0  0
  8 26  1  0  0  0  0
  9 16  1  0  0  0  0
 10 11  2  0  0  0  0
 11 12  1  0  0  0  0
 14 15  1  0  0  0  0
 14 27  1  0  0  0  0
 15 28  1  0  0  0  0
 16 17  1  0  0  0  0
 16 29  1  0  0  0  0
 16 30  1  0  0  0  0
 17 19  1  0  0  0  0
 17 31  1  0  0  0  0
 17 32  1  0  0  0  0
 18 33  1  0  0  0  0
 18 34  1  0  0  0  0
 18 35  1  0  0  0  0
 19 20  1  0  0  0  0
 19 24  2  0  0  0  0
 20 21  2  0  0  0  0
 20 36  1  0  0  0  0
 21 22  1  0  0  0  0
 21 37  1  0  0  0  0
 22 23  2  0  0  0  0
 22 38  1  0  0  0  0
 23 24  1  0  0  0  0
 23 39  1  0  0  0  0
 24 40  1  0  0  0  0
M  END
$$$$
