lig8 - preprocessed
  PyMOL2.4          3D                             0

 46 49  0  0  0  0  0  0  0  0999 V2000
   42.5460   44.6490   70.3370 N   0  0  0  0  0  0  0  0  0  0  0  0
   41.1530   44.9220   68.3920 N   0  0  0  0  0  0  0  0  0  0  0  0
   42.0650   43.7330   66.4230 N   0  0  0  0  0  0  0  0  0  0  0  0
   43.9340   42.8460   67.3760 N   0  0  0  0  0  0  0  0  0  0  0  0
   43.5070   42.1490   65.1550 N   0  0  0  0  0  0  0  0  0  0  0  0
   42.6050   41.7690   64.2030 N   0  0  0  0  0  0  0  0  0  0  0  0
   44.7550   41.6320   64.9710 N   0  0  0  0  0  0  0  0  0  0  0  0
   44.5330   43.4560   70.3590 N   0  0  0  0  0  0  0  0  0  0  0  0
   41.4640   45.0900   69.6820 C   0  0  0  0  0  0  0  0  0  0  0  0
   42.0780   44.1590   67.7420 C   0  0  0  0  0  0  0  0  0  0  0  0
   43.2570   43.6100   68.3120 C   0  0  0  0  0  0  0  0  0  0  0  0
   43.4680   43.9050   69.6810 C   0  0  0  0  0  0  0  0  0  0  0  0
   43.1780   42.9160   66.3100 C   0  0  0  0  0  0  0  0  0  0  0  0
   43.3200   41.0490   63.3780 C   0  0  0  0  0  0  0  0  0  0  0  0
   44.6480   40.9670   63.8500 C   0  0  0  0  0  0  0  0  0  0  0  0
   40.4850   45.9460   70.4700 C   0  0  0  0  0  0  0  0  0  0  0  0
   40.8000   47.4370   70.2860 C   0  0  0  0  0  0  0  0  0  0  0  0
   41.0630   44.0630   65.4240 C   0  0  0  0  0  0  0  0  0  0  0  0
   39.7990   48.4530   70.8620 C   0  0  0  0  0  0  0  0  0  0  0  0
   40.3210   49.9000   70.6760 C   0  0  0  0  0  0  0  0  0  0  0  0
   40.2070   50.4170   69.2300 C   0  0  0  0  0  0  0  0  0  0  0  0
   38.7940   50.2400   68.6670 C   0  0  0  0  0  0  0  0  0  0  0  0
   38.3270   48.7860   68.8000 C   0  0  0  0  0  0  0  0  0  0  0  0
   38.3800   48.3360   70.2700 C   0  0  0  0  0  0  0  0  0  0  0  0
   45.2328   42.8994   69.8893 H   0  0  0  0  0  0  0  0  0  0  0  0
   44.6360   43.6742   71.3398 H   0  0  0  0  0  0  0  0  0  0  0  0
   42.8634   40.6261   62.4954 H   0  0  0  0  0  0  0  0  0  0  0  0
   45.5101   40.4662   63.4348 H   0  0  0  0  0  0  0  0  0  0  0  0
   40.5482   45.6895   71.5275 H   0  0  0  0  0  0  0  0  0  0  0  0
   39.4698   45.7446   70.1280 H   0  0  0  0  0  0  0  0  0  0  0  0
   40.9487   47.6430   69.2260 H   0  0  0  0  0  0  0  0  0  0  0  0
   41.7918   47.6452   70.6873 H   0  0  0  0  0  0  0  0  0  0  0  0
   40.3247   44.7372   65.8581 H   0  0  0  0  0  0  0  0  0  0  0  0
   41.5426   44.5487   64.5742 H   0  0  0  0  0  0  0  0  0  0  0  0
   40.5689   43.1510   65.0892 H   0  0  0  0  0  0  0  0  0  0  0  0
   39.7234   48.2671   71.9334 H   0  0  0  0  0  0  0  0  0  0  0  0
   41.3609   49.9535   70.9983 H   0  0  0  0  0  0  0  0  0  0  0  0
   39.7775   50.5691   71.3432 H   0  0  0  0  0  0  0  0  0  0  0  0
   40.9184   49.8856   68.5978 H   0  0  0  0  0  0  0  0  0  0  0  0
   40.4799   51.4718   69.1995 H   0  0  0  0  0  0  0  0  0  0  0  0
   38.7830   50.5300   67.6163 H   0  0  0  0  0  0  0  0  0  0  0  0
   38.1053   50.8928   69.2033 H   0  0  0  0  0  0  0  0  0  0  0  0
   38.9697   48.1420   68.1998 H   0  0  0  0  0  0  0  0  0  0  0  0
   37.3056   48.6975   68.4299 H   0  0  0  0  0  0  0  0  0  0  0  0
   37.6904   48.9404   70.8592 H   0  0  0  0  0  0  0  0  0  0  0  0
   38.0397   47.3032   70.3454 H   0  0  0  0  0  0  0  0  0  0  0  0
  1  9  1  0  0  0  0
  1 12  2  0  0  0  0
  2  9  2  0  0  0  0
  2 10  1  0  0  0  0
  3 10  1  0  0  0  0
  3 13  1  0  0  0  0
  3 18  1  0  0  0  0
  4 11  1  0  0  0  0
  4 13  2  0  0  0  0
  5  6  1  0  0  0  0
  5  7  1  0  0  0  0
  5 13  1  0  0  0  0
  6 14  2  0  0  0  0
  7 15  2  0  0  0  0
  8 12  1  0  0  0  0
  8 25  1  0  0  0  0
  8 26  1  0  0  0  0
  9 16  1  0  0  0  0
 10 11  2  0  0  0  0
 11 12  1  0  0  0  0
 14 15  1  0  0  0  0
 14 27  1  0  0  0  0
 15 28  1  0  0  0  0
 16 17  1  0  0  0  0
 16 29  1  0  0  0  0
 16 30  1  0  0  0  0
 17 19  1  0  0  0  0
 17 31  1  0  0  0  0
 17 32  1  0  0  0  0
 18 33  1  0  0  0  0
 18 34  1  0  0  0  0
 18 35  1  0  0  0  0
 19 20  1  0  0  0  0
 19 24  1  0  0  0  0
 19 36  1  0  0  0  0
 20 21  1  0  0  0  0
 20 37  1  0  0  0  0
 20 38  1  0  0  0  0
 21 22  1  0  0  0  0
 21 39  1  0  0  0  0
 21 40  1  0  0  0  0
 22 23  1  0  0  0  0
 22 41  1  0  0  0  0
 22 42  1  0  0  0  0
 23 24  1  0  0  0  0
 23 43  1  0  0  0  0
 23 44  1  0  0  0  0
 24 45  1  0  0  0  0
 24 46  1  0  0  0  0
M  END
$$$$
