13
  PyMOL2.6          3D                             0

 62 68  0  0  1  0  0  0  0  0999 V2000
   41.8895   37.8099   44.5877 C   0  0  0  0  0  0  0  0  0  0  0  0
   40.4087   37.8880   44.2894 C   0  0  0  0  0  0  0  0  0  0  0  0
   39.6879   39.2191   44.2641 C   0  0  0  0  0  0  0  0  0  0  0  0
   40.8880   37.3147   45.5998 C   0  0  0  0  0  0  0  0  0  0  0  0
   41.5186   40.9996   42.5030 C   0  0  0  0  0  0  0  0  0  0  0  0
   40.5810   39.8544   42.0075 C   0  0  2  0  0  0  0  0  0  0  0  0
   39.4387   37.7664   39.8167 C   0  0  0  0  0  0  0  0  0  0  0  0
   38.0938   41.2840   41.4574 C   0  0  0  0  0  0  0  0  0  0  0  0
   40.1303   40.0726   40.5344 C   0  0  2  0  0  0  0  0  0  0  0  0
   41.8693   43.6169   42.3083 C   0  0  0  0  0  0  0  0  0  0  0  0
   41.2049   42.4102   42.0109 C   0  0  0  0  0  0  0  0  0  0  0  0
   41.3137   40.1620   39.5252 C   0  0  0  0  0  0  0  0  0  0  0  0
   41.4840   44.8092   41.6463 C   0  0  0  0  0  0  0  0  0  0  0  0
   40.1923   42.5007   41.0450 C   0  0  0  0  0  0  0  0  0  0  0  0
   39.3406   41.3937   40.5369 C   0  0  2  0  0  0  0  0  0  0  0  0
   40.8374   40.4417   38.0908 C   0  0  0  0  0  0  0  0  0  0  0  0
   39.8033   43.6124   40.3391 C   0  0  0  0  0  0  0  0  0  0  0  0
   40.4579   44.7967   40.6661 C   0  0  0  0  0  0  0  0  0  0  0  0
   38.9338   41.9589   39.1358 C   0  0  2  0  0  0  0  0  0  0  0  0
   39.9690   41.6970   38.0148 C   0  0  0  0  0  0  0  0  0  0  0  0
   39.3786   39.6765   42.8886 N   0  3  2  0  0  0  0  0  0  0  0  0
   40.4879   37.1689   40.0022 O   0  0  0  0  0  0  0  0  0  0  0  0
   39.1951   39.0376   40.1156 N   0  0  0  0  0  0  0  0  0  0  0  0
   38.2904   37.1309   39.1495 C   0  0  0  0  0  0  0  0  0  0  0  0
   38.8882   43.3770   39.3510 O   0  0  0  0  0  0  0  0  0  0  0  0
   40.0879   45.9066   39.9933 O   0  0  0  0  0  0  0  0  0  0  0  0
   40.0879   42.4682   37.0641 O   0  0  0  0  0  0  0  0  0  0  0  0
   38.4688   40.8466   42.8863 C   0  0  0  0  0  0  0  0  0  0  0  0
   37.9103   37.5626   37.8641 C   0  0  0  0  0  0  0  0  0  0  0  0
   36.7996   36.9785   37.2451 C   0  0  0  0  0  0  0  0  0  0  0  0
   36.0879   35.9714   37.9212 C   0  0  0  0  0  0  0  0  0  0  0  0
   36.4298   35.5839   39.2223 C   0  0  0  0  0  0  0  0  0  0  0  0
   37.5537   36.1545   39.8332 C   0  0  0  0  0  0  0  0  0  0  0  0
   42.4711   37.0636   44.0491 H   0  0  0  0  0  0  0  0  0  0  0  0
   42.4173   38.7331   44.8196 H   0  0  0  0  0  0  0  0  0  0  0  0
   40.0084   37.1547   43.5905 H   0  0  0  0  0  0  0  0  0  0  0  0
   40.2484   39.9593   44.8300 H   0  0  0  0  0  0  0  0  0  0  0  0
   38.7453   39.1066   44.7916 H   0  0  0  0  0  0  0  0  0  0  0  0
   40.7456   37.9066   46.5011 H   0  0  0  0  0  0  0  0  0  0  0  0
   40.8168   36.2395   45.7395 H   0  0  0  0  0  0  0  0  0  0  0  0
   41.6263   41.0218   43.5852 H   0  0  0  0  0  0  0  0  0  0  0  0
   42.5161   40.7790   42.1374 H   0  0  0  0  0  0  0  0  0  0  0  0
   41.1515   38.9263   42.0420 H   0  0  0  0  0  0  0  0  0  0  0  0
   37.3630   40.5921   41.0414 H   0  0  0  0  0  0  0  0  0  0  0  0
   37.5669   42.2386   41.5024 H   0  0  0  0  0  0  0  0  0  0  0  0
   42.6729   43.6354   43.0305 H   0  0  0  0  0  0  0  0  0  0  0  0
   42.0218   40.9415   39.8061 H   0  0  0  0  0  0  0  0  0  0  0  0
   41.9011   39.2459   39.5346 H   0  0  0  0  0  0  0  0  0  0  0  0
   41.9942   45.7300   41.8831 H   0  0  0  0  0  0  0  0  0  0  0  0
   41.7006   40.5695   37.4371 H   0  0  0  0  0  0  0  0  0  0  0  0
   40.2731   39.5981   37.6974 H   0  0  0  0  0  0  0  0  0  0  0  0
   37.9641   41.5779   38.8140 H   0  0  0  0  0  0  0  0  0  0  0  0
   38.2309   39.3213   39.9882 H   0  0  0  0  0  0  0  0  0  0  0  0
   37.5575   40.6059   43.4360 H   0  0  0  0  0  0  0  0  0  0  0  0
   38.9388   41.6650   43.4278 H   0  0  0  0  0  0  0  0  0  0  0  0
   38.4580   38.3423   37.3551 H   0  0  0  0  0  0  0  0  0  0  0  0
   36.4879   37.3125   36.2678 H   0  0  0  0  0  0  0  0  0  0  0  0
   35.2306   35.5066   37.4641 H   0  0  0  0  0  0  0  0  0  0  0  0
   35.8483   34.8363   39.7423 H   0  0  0  0  0  0  0  0  0  0  0  0
   37.8355   35.8577   40.8313 H   0  0  0  0  0  0  0  0  0  0  0  0
   40.6012   46.6702   40.2617 H   0  0  0  0  0  0  0  0  0  0  0  0
   38.8053   38.9341   42.4930 H   0  0  0  0  0  0  0  0  0  0  0  0
  1  2  1  0  0  0  0
  1  4  1  0  0  0  0
  1 34  1  0  0  0  0
  1 35  1  0  0  0  0
  2  3  1  0  0  0  0
  2  4  1  0  0  0  0
  2 36  1  0  0  0  0
  3 21  1  0  0  0  0
  3 37  1  0  0  0  0
  3 38  1  0  0  0  0
  4 39  1  0  0  0  0
  4 40  1  0  0  0  0
  5  6  1  0  0  0  0
  5 11  1  0  0  0  0
  5 41  1  0  0  0  0
  5 42  1  0  0  0  0
  6  9  1  0  0  0  0
  6 21  1  0  0  0  0
  6 43  1  0  0  0  0
  7 22  2  0  0  0  0
  7 23  1  0  0  0  0
  7 24  1  0  0  0  0
  8 15  1  0  0  0  0
  8 28  1  0  0  0  0
  8 44  1  0  0  0  0
  8 45  1  0  0  0  0
  9 12  1  0  0  0  0
  9 15  1  0  0  0  0
  9 23  1  0  0  0  0
 10 11  2  0  0  0  0
 10 13  1  0  0  0  0
 10 46  1  0  0  0  0
 11 14  1  0  0  0  0
 12 16  1  0  0  0  0
 12 47  1  0  0  0  0
 12 48  1  0  0  0  0
 13 18  2  0  0  0  0
 13 49  1  0  0  0  0
 14 15  1  0  0  0  0
 14 17  2  0  0  0  0
 15 19  1  0  0  0  0
 16 20  1  0  0  0  0
 16 50  1  0  0  0  0
 16 51  1  0  0  0  0
 17 18  1  0  0  0  0
 17 25  1  0  0  0  0
 18 26  1  0  0  0  0
 19 20  1  0  0  0  0
 19 25  1  0  0  0  0
 19 52  1  0  0  0  0
 20 27  2  0  0  0  0
 21 28  1  0  0  0  0
 21 62  1  0  0  0  0
 23 53  1  0  0  0  0
 24 29  2  0  0  0  0
 24 33  1  0  0  0  0
 26 61  1  0  0  0  0
 28 54  1  0  0  0  0
 28 55  1  0  0  0  0
 29 30  1  0  0  0  0
 29 56  1  0  0  0  0
 30 31  2  0  0  0  0
 30 57  1  0  0  0  0
 31 32  1  0  0  0  0
 31 58  1  0  0  0  0
 32 33  2  0  0  0  0
 32 59  1  0  0  0  0
 33 60  1  0  0  0  0
M  END
$$$$
