19
  PyMOL2.6          3D                             0

 67 73  0  0  1  0  0  0  0  0999 V2000
   41.1635   37.5679   45.5400 C   0  0  0  0  0  0  0  0  0  0  0  0
   40.8428   38.6897   44.5777 C   0  0  0  0  0  0  0  0  0  0  0  0
   39.4770   38.7112   43.9191 C   0  0  0  0  0  0  0  0  0  0  0  0
   41.9001   37.6630   44.2280 C   0  0  0  0  0  0  0  0  0  0  0  0
   41.4954   40.7176   42.1653 C   0  0  0  0  0  0  0  0  0  0  0  0
   40.4340   39.6543   41.7037 C   0  0  2  0  0  0  0  0  0  0  0  0
   39.0331   37.9137   39.0626 C   0  0  0  0  0  0  0  0  0  0  0  0
   38.0039   41.2738   41.4807 C   0  0  0  0  0  0  0  0  0  0  0  0
   39.8758   40.0078   40.2788 C   0  0  2  0  0  0  0  0  0  0  0  0
   41.9054   43.3422   42.2612 C   0  0  0  0  0  0  0  0  0  0  0  0
   41.1900   42.1871   41.8727 C   0  0  0  0  0  0  0  0  0  0  0  0
   41.0073   40.2050   39.2100 C   0  0  0  0  0  0  0  0  0  0  0  0
   41.5279   44.6119   41.7464 C   0  0  0  0  0  0  0  0  0  0  0  0
   40.1188   42.4056   40.9975 C   0  0  0  0  0  0  0  0  0  0  0  0
   39.1722   41.3807   40.4660 C   0  0  2  0  0  0  0  0  0  0  0  0
   40.4507   40.6247   37.8381 C   0  0  0  0  0  0  0  0  0  0  0  0
   39.7333   43.5994   40.4358 C   0  0  0  0  0  0  0  0  0  0  0  0
   40.4542   44.7279   40.8239 C   0  0  0  0  0  0  0  0  0  0  0  0
   38.6946   42.1030   39.1648 C   0  0  2  0  0  0  0  0  0  0  0  0
   39.6206   41.9019   37.9428 C   0  0  0  0  0  0  0  0  0  0  0  0
   39.2899   39.5075   42.6706 N   0  3  2  0  0  0  0  0  0  0  0  0
   40.1404   37.5064   38.7421 O   0  0  0  0  0  0  0  0  0  0  0  0
   38.8650   39.0084   39.8342 N   0  0  0  0  0  0  0  0  0  0  0  0
   37.8211   37.1063   38.5631 C   0  0  0  0  0  0  0  0  0  0  0  0
   38.7422   43.4959   39.5041 O   0  0  0  0  0  0  0  0  0  0  0  0
   40.0879   45.9065   40.2633 O   0  0  0  0  0  0  0  0  0  0  0  0
   39.6985   42.7536   37.0602 O   0  0  0  0  0  0  0  0  0  0  0  0
   38.4697   40.7332   42.8456 C   0  0  0  0  0  0  0  0  0  0  0  0
   36.4991   37.8504   38.2958 C   0  0  0  0  0  0  0  0  0  0  0  0
   36.3373   38.6242   37.0037 C   0  0  0  0  0  0  0  0  0  0  0  0
   36.0877   37.9076   35.8805 N   0  0  0  0  0  0  0  0  0  0  0  0
   35.6871   38.6041   34.7889 C   0  0  0  0  0  0  0  0  0  0  0  0
   35.5640   40.0072   34.7557 C   0  0  0  0  0  0  0  0  0  0  0  0
   35.8594   40.7396   35.9134 C   0  0  0  0  0  0  0  0  0  0  0  0
   36.2436   40.0306   37.0607 C   0  0  0  0  0  0  0  0  0  0  0  0
   41.6963   37.8381   46.4491 H   0  0  0  0  0  0  0  0  0  0  0  0
   40.4435   36.7593   45.6504 H   0  0  0  0  0  0  0  0  0  0  0  0
   41.1646   39.6529   44.9601 H   0  0  0  0  0  0  0  0  0  0  0  0
   38.7764   39.1036   44.6592 H   0  0  0  0  0  0  0  0  0  0  0  0
   39.1969   37.6806   43.7022 H   0  0  0  0  0  0  0  0  0  0  0  0
   41.6674   36.9095   43.4739 H   0  0  0  0  0  0  0  0  0  0  0  0
   42.9381   37.9879   44.2561 H   0  0  0  0  0  0  0  0  0  0  0  0
   41.7422   40.6514   43.2168 H   0  0  0  0  0  0  0  0  0  0  0  0
   42.4381   40.5000   41.6595 H   0  0  0  0  0  0  0  0  0  0  0  0
   40.9256   38.6818   41.6505 H   0  0  0  0  0  0  0  0  0  0  0  0
   37.2105   40.6528   41.0752 H   0  0  0  0  0  0  0  0  0  0  0  0
   37.5326   42.2461   41.6285 H   0  0  0  0  0  0  0  0  0  0  0  0
   42.7511   43.2631   42.9284 H   0  0  0  0  0  0  0  0  0  0  0  0
   41.7209   40.9721   39.5073 H   0  0  0  0  0  0  0  0  0  0  0  0
   41.6352   39.3213   39.1132 H   0  0  0  0  0  0  0  0  0  0  0  0
   42.0851   45.4881   42.0428 H   0  0  0  0  0  0  0  0  0  0  0  0
   41.2788   40.8003   37.1504 H   0  0  0  0  0  0  0  0  0  0  0  0
   39.8386   39.8440   37.3897 H   0  0  0  0  0  0  0  0  0  0  0  0
   37.6813   41.8208   38.8989 H   0  0  0  0  0  0  0  0  0  0  0  0
   37.9082   39.1774   40.1319 H   0  0  0  0  0  0  0  0  0  0  0  0
   37.6330   36.3645   39.3416 H   0  0  0  0  0  0  0  0  0  0  0  0
   38.0866   36.5431   37.6708 H   0  0  0  0  0  0  0  0  0  0  0  0
   40.6730   46.6336   40.4874 H   0  0  0  0  0  0  0  0  0  0  0  0
   37.5834   40.5101   43.4431 H   0  0  0  0  0  0  0  0  0  0  0  0
   39.0266   41.4884   43.4042 H   0  0  0  0  0  0  0  0  0  0  0  0
   36.3105   38.5792   39.0641 H   0  0  0  0  0  0  0  0  0  0  0  0
   35.6880   37.1298   38.3705 H   0  0  0  0  0  0  0  0  0  0  0  0
   35.4645   38.0205   33.9075 H   0  0  0  0  0  0  0  0  0  0  0  0
   35.2421   40.5190   33.8654 H   0  0  0  0  0  0  0  0  0  0  0  0
   35.7582   41.8145   35.9324 H   0  0  0  0  0  0  0  0  0  0  0  0
   36.3916   40.5557   37.9885 H   0  0  0  0  0  0  0  0  0  0  0  0
   38.6219   38.8985   42.2057 H   0  0  0  0  0  0  0  0  0  0  0  0
  1  2  1  0  0  0  0
  1  4  1  0  0  0  0
  1 36  1  0  0  0  0
  1 37  1  0  0  0  0
  2  3  1  0  0  0  0
  2  4  1  0  0  0  0
  2 38  1  0  0  0  0
  3 21  1  0  0  0  0
  3 39  1  0  0  0  0
  3 40  1  0  0  0  0
  4 41  1  0  0  0  0
  4 42  1  0  0  0  0
  5  6  1  0  0  0  0
  5 11  1  0  0  0  0
  5 43  1  0  0  0  0
  5 44  1  0  0  0  0
  6  9  1  0  0  0  0
  6 21  1  0  0  0  0
  6 45  1  0  0  0  0
  7 22  2  0  0  0  0
  7 23  1  0  0  0  0
  7 24  1  0  0  0  0
  8 15  1  0  0  0  0
  8 28  1  0  0  0  0
  8 46  1  0  0  0  0
  8 47  1  0  0  0  0
  9 12  1  0  0  0  0
  9 15  1  0  0  0  0
  9 23  1  0  0  0  0
 10 11  2  0  0  0  0
 10 13  1  0  0  0  0
 10 48  1  0  0  0  0
 11 14  1  0  0  0  0
 12 16  1  0  0  0  0
 12 49  1  0  0  0  0
 12 50  1  0  0  0  0
 13 18  2  0  0  0  0
 13 51  1  0  0  0  0
 14 15  1  0  0  0  0
 14 17  2  0  0  0  0
 15 19  1  0  0  0  0
 16 20  1  0  0  0  0
 16 52  1  0  0  0  0
 16 53  1  0  0  0  0
 17 18  1  0  0  0  0
 17 25  1  0  0  0  0
 18 26  1  0  0  0  0
 19 20  1  0  0  0  0
 19 25  1  0  0  0  0
 19 54  1  0  0  0  0
 20 27  2  0  0  0  0
 21 28  1  0  0  0  0
 21 67  1  0  0  0  0
 23 55  1  0  0  0  0
 24 29  1  0  0  0  0
 24 56  1  0  0  0  0
 24 57  1  0  0  0  0
 26 58  1  0  0  0  0
 28 59  1  0  0  0  0
 28 60  1  0  0  0  0
 29 30  1  0  0  0  0
 29 61  1  0  0  0  0
 29 62  1  0  0  0  0
 30 31  2  0  0  0  0
 30 35  1  0  0  0  0
 31 32  1  0  0  0  0
 32 33  2  0  0  0  0
 32 63  1  0  0  0  0
 33 34  1  0  0  0  0
 33 64  1  0  0  0  0
 34 35  2  0  0  0  0
 34 65  1  0  0  0  0
 35 66  1  0  0  0  0
M  END
$$$$
