4g
  PyMOL2.6          3D                             0

 36 38  0  0  0  0  0  0  0  0999 V2000
   40.8923   39.9203   68.4006 N   0  0  0  0  0  0  0  0  0  0  0  0
   40.0165   40.2127   67.4304 N   0  0  0  0  0  0  0  0  0  0  0  0
   40.2640   39.8257   66.1503 C   0  0  0  0  0  0  0  0  0  0  0  0
   41.4483   39.0944   65.8451 C   0  0  0  0  0  0  0  0  0  0  0  0
   42.3218   38.8195   66.8379 N   0  0  0  0  0  0  0  0  0  0  0  0
   41.9926   39.2534   68.0473 C   0  0  0  0  0  0  0  0  0  0  0  0
   37.2919   40.9677   63.2538 N   0  0  0  0  0  0  0  0  0  0  0  0
   36.9432   40.3275   64.3911 C   0  0  0  0  0  0  0  0  0  0  0  0
   37.8788   39.9516   65.3742 C   0  0  0  0  0  0  0  0  0  0  0  0
   39.2449   40.2418   65.1706 C   0  0  0  0  0  0  0  0  0  0  0  0
   39.6000   40.9184   63.9830 C   0  0  0  0  0  0  0  0  0  0  0  0
   38.5940   41.2601   63.0612 C   0  0  0  0  0  0  0  0  0  0  0  0
   42.6112   37.5983   61.9541 C   0  0  0  0  0  0  0  0  0  0  0  0
   43.5856   38.0630   62.8536 C   0  0  0  0  0  0  0  0  0  0  0  0
   43.1983   38.5389   64.1189 C   0  0  0  0  0  0  0  0  0  0  0  0
   41.8370   38.5679   64.5131 C   0  0  0  0  0  0  0  0  0  0  0  0
   40.8781   38.0641   63.6022 C   0  0  0  0  0  0  0  0  0  0  0  0
   41.2579   37.5988   62.3303 C   0  0  0  0  0  0  0  0  0  0  0  0
   42.8919   38.9796   69.0287 N   0  0  0  0  0  0  0  0  0  0  0  0
   38.9447   41.9779   61.7744 C   0  0  0  0  0  0  0  0  0  0  0  0
   35.4692   40.0215   64.5589 C   0  0  0  0  0  0  0  0  0  0  0  0
   37.5597   39.4359   66.2697 H   0  0  0  0  0  0  0  0  0  0  0  0
   40.6317   41.1681   63.7806 H   0  0  0  0  0  0  0  0  0  0  0  0
   42.9018   37.2394   60.9779 H   0  0  0  0  0  0  0  0  0  0  0  0
   44.6287   38.0594   62.5740 H   0  0  0  0  0  0  0  0  0  0  0  0
   43.9651   38.8967   64.7914 H   0  0  0  0  0  0  0  0  0  0  0  0
   39.8337   38.0252   63.8729 H   0  0  0  0  0  0  0  0  0  0  0  0
   40.5065   37.2379   61.6440 H   0  0  0  0  0  0  0  0  0  0  0  0
   43.7954   38.5755   68.8020 H   0  0  0  0  0  0  0  0  0  0  0  0
   42.6995   39.2616   69.9892 H   0  0  0  0  0  0  0  0  0  0  0  0
   39.7589   42.6851   61.9378 H   0  0  0  0  0  0  0  0  0  0  0  0
   39.2614   41.2599   61.0167 H   0  0  0  0  0  0  0  0  0  0  0  0
   38.0904   42.5334   61.3862 H   0  0  0  0  0  0  0  0  0  0  0  0
   35.2961   39.3711   65.4177 H   0  0  0  0  0  0  0  0  0  0  0  0
   35.0769   39.5211   63.6720 H   0  0  0  0  0  0  0  0  0  0  0  0
   34.9055   40.9433   64.7111 H   0  0  0  0  0  0  0  0  0  0  0  0
  1  2  1  0  0  0  0
  1  6  2  0  0  0  0
  2  3  2  0  0  0  0
  3  4  1  0  0  0  0
  3 10  1  0  0  0  0
  4  5  2  0  0  0  0
  4 16  1  0  0  0  0
  5  6  1  0  0  0  0
  6 19  1  0  0  0  0
  7  8  1  0  0  0  0
  7 12  2  0  0  0  0
  8  9  2  0  0  0  0
  8 21  1  0  0  0  0
  9 10  1  0  0  0  0
  9 22  1  0  0  0  0
 10 11  2  0  0  0  0
 11 12  1  0  0  0  0
 11 23  1  0  0  0  0
 12 20  1  0  0  0  0
 13 14  1  0  0  0  0
 13 18  2  0  0  0  0
 13 24  1  0  0  0  0
 14 15  2  0  0  0  0
 14 25  1  0  0  0  0
 15 16  1  0  0  0  0
 15 26  1  0  0  0  0
 16 17  2  0  0  0  0
 17 18  1  0  0  0  0
 17 27  1  0  0  0  0
 18 28  1  0  0  0  0
 19 29  1  0  0  0  0
 19 30  1  0  0  0  0
 20 31  1  0  0  0  0
 20 32  1  0  0  0  0
 20 33  1  0  0  0  0
 21 34  1  0  0  0  0
 21 35  1  0  0  0  0
 21 36  1  0  0  0  0
M  END
$$$$
