4h
  PyMOL2.6          3D                             0

 36 38  0  0  0  0  0  0  0  0999 V2000
   40.9064   39.7369   68.5006 N   0  0  0  0  0  0  0  0  0  0  0  0
   40.0280   40.0883   67.5529 N   0  0  0  0  0  0  0  0  0  0  0  0
   40.2502   39.7559   66.2528 C   0  0  0  0  0  0  0  0  0  0  0  0
   41.4272   39.0295   65.9030 C   0  0  0  0  0  0  0  0  0  0  0  0
   42.3091   38.7005   66.8734 N   0  0  0  0  0  0  0  0  0  0  0  0
   41.9945   39.0716   68.1083 C   0  0  0  0  0  0  0  0  0  0  0  0
   37.1883   41.0713   63.5115 N   0  0  0  0  0  0  0  0  0  0  0  0
   36.8693   40.4631   64.6733 C   0  0  0  0  0  0  0  0  0  0  0  0
   37.8364   40.0225   65.5968 C   0  0  0  0  0  0  0  0  0  0  0  0
   39.2070   40.2192   65.3140 C   0  0  0  0  0  0  0  0  0  0  0  0
   39.5298   40.8624   64.0979 C   0  0  0  0  0  0  0  0  0  0  0  0
   38.4933   41.2626   63.2350 C   0  0  0  0  0  0  0  0  0  0  0  0
   42.5445   37.6383   61.9633 C   0  0  0  0  0  0  0  0  0  0  0  0
   41.1962   37.6236   62.3574 C   0  0  0  0  0  0  0  0  0  0  0  0
   40.8305   38.0632   63.6420 C   0  0  0  0  0  0  0  0  0  0  0  0
   41.8008   38.5490   64.5503 C   0  0  0  0  0  0  0  0  0  0  0  0
   43.1576   38.5312   64.1396 C   0  0  0  0  0  0  0  0  0  0  0  0
   43.5300   38.0851   62.8582 C   0  0  0  0  0  0  0  0  0  0  0  0
   42.8919   38.7334   69.0706 N   0  0  0  0  0  0  0  0  0  0  0  0
   38.8101   41.9374   61.9174 C   0  0  0  0  0  0  0  0  0  0  0  0
   35.3903   40.2666   64.9335 C   0  0  0  0  0  0  0  0  0  0  0  0
   37.5333   39.5330   66.5116 H   0  0  0  0  0  0  0  0  0  0  0  0
   40.5599   41.0442   63.8288 H   0  0  0  0  0  0  0  0  0  0  0  0
   42.8908   37.2225   60.7243 F   0  0  0  0  0  0  0  0  0  0  0  0
   40.4423   37.2636   61.6744 H   0  0  0  0  0  0  0  0  0  0  0  0
   39.7896   38.0165   63.9263 H   0  0  0  0  0  0  0  0  0  0  0  0
   43.9333   38.8717   64.8110 H   0  0  0  0  0  0  0  0  0  0  0  0
   44.5687   38.0872   62.5617 H   0  0  0  0  0  0  0  0  0  0  0  0
   43.8347   38.4624   68.8045 H   0  0  0  0  0  0  0  0  0  0  0  0
   42.7438   39.0734   70.0189 H   0  0  0  0  0  0  0  0  0  0  0  0
   39.6903   42.5745   62.0138 H   0  0  0  0  0  0  0  0  0  0  0  0
   39.0087   41.1862   61.1522 H   0  0  0  0  0  0  0  0  0  0  0  0
   37.9793   42.5589   61.5830 H   0  0  0  0  0  0  0  0  0  0  0  0
   35.2205   39.6511   65.8173 H   0  0  0  0  0  0  0  0  0  0  0  0
   34.9130   39.7749   64.0847 H   0  0  0  0  0  0  0  0  0  0  0  0
   34.9048   41.2307   65.0904 H   0  0  0  0  0  0  0  0  0  0  0  0
  1  2  1  0  0  0  0
  1  6  2  0  0  0  0
  2  3  2  0  0  0  0
  3  4  1  0  0  0  0
  3 10  1  0  0  0  0
  4  5  2  0  0  0  0
  4 16  1  0  0  0  0
  5  6  1  0  0  0  0
  6 19  1  0  0  0  0
  7  8  1  0  0  0  0
  7 12  2  0  0  0  0
  8  9  2  0  0  0  0
  8 21  1  0  0  0  0
  9 10  1  0  0  0  0
  9 22  1  0  0  0  0
 10 11  2  0  0  0  0
 11 12  1  0  0  0  0
 11 23  1  0  0  0  0
 12 20  1  0  0  0  0
 13 14  1  0  0  0  0
 13 18  2  0  0  0  0
 13 24  1  0  0  0  0
 14 15  2  0  0  0  0
 14 25  1  0  0  0  0
 15 16  1  0  0  0  0
 15 26  1  0  0  0  0
 16 17  2  0  0  0  0
 17 18  1  0  0  0  0
 17 27  1  0  0  0  0
 18 28  1  0  0  0  0
 19 29  1  0  0  0  0
 19 30  1  0  0  0  0
 20 31  1  0  0  0  0
 20 32  1  0  0  0  0
 20 33  1  0  0  0  0
 21 34  1  0  0  0  0
 21 35  1  0  0  0  0
 21 36  1  0  0  0  0
M  END
$$$$
