4j
  PyMOL2.6          3D                             0

 36 38  0  0  0  0  0  0  0  0999 V2000
   40.8922   39.9132   68.5698 N   0  0  0  0  0  0  0  0  0  0  0  0
   40.0278   40.1875   67.5826 N   0  0  0  0  0  0  0  0  0  0  0  0
   40.2921   39.7960   66.3068 C   0  0  0  0  0  0  0  0  0  0  0  0
   41.4916   39.0765   66.0228 C   0  0  0  0  0  0  0  0  0  0  0  0
   42.3499   38.8105   67.0379 N   0  0  0  0  0  0  0  0  0  0  0  0
   42.0027   39.2474   68.2468 C   0  0  0  0  0  0  0  0  0  0  0  0
   37.2921   40.8626   63.3828 N   0  0  0  0  0  0  0  0  0  0  0  0
   36.9614   40.2149   64.5220 C   0  0  0  0  0  0  0  0  0  0  0  0
   37.9050   39.8648   65.5093 C   0  0  0  0  0  0  0  0  0  0  0  0
   39.2663   40.1888   65.3158 C   0  0  0  0  0  0  0  0  0  0  0  0
   39.6022   40.8729   64.1256 C   0  0  0  0  0  0  0  0  0  0  0  0
   38.5892   41.1855   63.1976 C   0  0  0  0  0  0  0  0  0  0  0  0
   42.7771   37.6627   62.1268 C   0  0  0  0  0  0  0  0  0  0  0  0
   41.4119   37.6736   62.4535 C   0  0  0  0  0  0  0  0  0  0  0  0
   40.9898   38.1035   63.7245 C   0  0  0  0  0  0  0  0  0  0  0  0
   41.9177   38.5691   64.6895 C   0  0  0  0  0  0  0  0  0  0  0  0
   43.2913   38.5310   64.3394 C   0  0  0  0  0  0  0  0  0  0  0  0
   43.7211   38.0815   63.0772 C   0  0  0  0  0  0  0  0  0  0  0  0
   42.8918   38.9975   69.2536 N   0  0  0  0  0  0  0  0  0  0  0  0
   38.9259   41.8988   61.9052 C   0  0  0  0  0  0  0  0  0  0  0  0
   35.4970   39.8617   64.6836 C   0  0  0  0  0  0  0  0  0  0  0  0
   37.5952   39.3385   66.4018 H   0  0  0  0  0  0  0  0  0  0  0  0
   40.6269   41.1492   63.9234 H   0  0  0  0  0  0  0  0  0  0  0  0
   43.0979   37.3306   61.1510 H   0  0  0  0  0  0  0  0  0  0  0  0
   40.4996   37.2919   61.5333 F   0  0  0  0  0  0  0  0  0  0  0  0
   39.9337   38.0754   63.9445 H   0  0  0  0  0  0  0  0  0  0  0  0
   44.0420   38.8629   65.0413 H   0  0  0  0  0  0  0  0  0  0  0  0
   44.7744   38.0700   62.8361 H   0  0  0  0  0  0  0  0  0  0  0  0
   43.7706   38.5368   69.0445 H   0  0  0  0  0  0  0  0  0  0  0  0
   42.6845   39.2609   70.2315 H   0  0  0  0  0  0  0  0  0  0  0  0
   39.7555   42.5907   62.0512 H   0  0  0  0  0  0  0  0  0  0  0  0
   39.2108   41.1746   61.1429 H   0  0  0  0  0  0  0  0  0  0  0  0
   38.0731   42.4680   61.5358 H   0  0  0  0  0  0  0  0  0  0  0  0
   35.3283   39.2725   65.5854 H   0  0  0  0  0  0  0  0  0  0  0  0
   35.1475   39.2792   63.8298 H   0  0  0  0  0  0  0  0  0  0  0  0
   34.8939   40.7673   64.7510 H   0  0  0  0  0  0  0  0  0  0  0  0
  1  2  1  0  0  0  0
  1  6  2  0  0  0  0
  2  3  2  0  0  0  0
  3  4  1  0  0  0  0
  3 10  1  0  0  0  0
  4  5  2  0  0  0  0
  4 16  1  0  0  0  0
  5  6  1  0  0  0  0
  6 19  1  0  0  0  0
  7  8  1  0  0  0  0
  7 12  2  0  0  0  0
  8  9  2  0  0  0  0
  8 21  1  0  0  0  0
  9 10  1  0  0  0  0
  9 22  1  0  0  0  0
 10 11  2  0  0  0  0
 11 12  1  0  0  0  0
 11 23  1  0  0  0  0
 12 20  1  0  0  0  0
 13 14  1  0  0  0  0
 13 18  2  0  0  0  0
 13 24  1  0  0  0  0
 14 15  2  0  0  0  0
 14 25  1  0  0  0  0
 15 16  1  0  0  0  0
 15 26  1  0  0  0  0
 16 17  2  0  0  0  0
 17 18  1  0  0  0  0
 17 27  1  0  0  0  0
 18 28  1  0  0  0  0
 19 29  1  0  0  0  0
 19 30  1  0  0  0  0
 20 31  1  0  0  0  0
 20 32  1  0  0  0  0
 20 33  1  0  0  0  0
 21 34  1  0  0  0  0
 21 35  1  0  0  0  0
 21 36  1  0  0  0  0
M  END
$$$$
