4q
  PyMOL2.6          3D                             0

 30 32  0  0  0  0  0  0  0  0999 V2000
   40.8934   39.9188   68.6306 N   0  0  0  0  0  0  0  0  0  0  0  0
   40.0092   40.2180   67.6724 N   0  0  0  0  0  0  0  0  0  0  0  0
   40.2276   39.8365   66.3857 C   0  0  0  0  0  0  0  0  0  0  0  0
   41.4031   39.0974   66.0580 C   0  0  0  0  0  0  0  0  0  0  0  0
   42.2878   38.8072   67.0439 N   0  0  0  0  0  0  0  0  0  0  0  0
   41.9822   39.2400   68.2667 C   0  0  0  0  0  0  0  0  0  0  0  0
   37.1243   41.1042   63.6537 N   0  0  0  0  0  0  0  0  0  0  0  0
   36.8281   40.5284   64.8373 C   0  0  0  0  0  0  0  0  0  0  0  0
   37.8068   40.0970   65.7510 C   0  0  0  0  0  0  0  0  0  0  0  0
   39.1742   40.2668   65.4390 C   0  0  0  0  0  0  0  0  0  0  0  0
   39.4773   40.8695   64.1968 C   0  0  0  0  0  0  0  0  0  0  0  0
   38.4280   41.2632   63.3463 C   0  0  0  0  0  0  0  0  0  0  0  0
   42.4885   37.6588   62.1112 C   0  0  0  0  0  0  0  0  0  0  0  0
   41.1446   37.6469   62.5199 C   0  0  0  0  0  0  0  0  0  0  0  0
   40.7915   38.0875   63.8101 C   0  0  0  0  0  0  0  0  0  0  0  0
   41.7667   38.5863   64.7082 C   0  0  0  0  0  0  0  0  0  0  0  0
   43.1180   38.5680   64.2795 C   0  0  0  0  0  0  0  0  0  0  0  0
   43.4783   38.1111   62.9980 C   0  0  0  0  0  0  0  0  0  0  0  0
   42.8918   38.9773   69.2483 N   0  0  0  0  0  0  0  0  0  0  0  0
   35.7775   40.4118   65.0611 H   0  0  0  0  0  0  0  0  0  0  0  0
   37.5063   39.6438   66.6839 H   0  0  0  0  0  0  0  0  0  0  0  0
   40.5004   41.0395   63.8961 H   0  0  0  0  0  0  0  0  0  0  0  0
   38.6406   41.7284   62.3947 H   0  0  0  0  0  0  0  0  0  0  0  0
   42.7612   37.3110   61.1254 H   0  0  0  0  0  0  0  0  0  0  0  0
   40.3856   37.2729   61.8487 H   0  0  0  0  0  0  0  0  0  0  0  0
   39.7541   38.0372   64.1061 H   0  0  0  0  0  0  0  0  0  0  0  0
   43.9043   38.9186   64.9310 H   0  0  0  0  0  0  0  0  0  0  0  0
   44.5154   38.1083   62.6991 H   0  0  0  0  0  0  0  0  0  0  0  0
   43.7694   38.5219   69.0188 H   0  0  0  0  0  0  0  0  0  0  0  0
   42.7154   39.2624   70.2244 H   0  0  0  0  0  0  0  0  0  0  0  0
  1  2  1  0  0  0  0
  1  6  2  0  0  0  0
  2  3  2  0  0  0  0
  3  4  1  0  0  0  0
  3 10  1  0  0  0  0
  4  5  2  0  0  0  0
  4 16  1  0  0  0  0
  5  6  1  0  0  0  0
  6 19  1  0  0  0  0
  7  8  1  0  0  0  0
  7 12  2  0  0  0  0
  8  9  2  0  0  0  0
  8 20  1  0  0  0  0
  9 10  1  0  0  0  0
  9 21  1  0  0  0  0
 10 11  2  0  0  0  0
 11 12  1  0  0  0  0
 11 22  1  0  0  0  0
 12 23  1  0  0  0  0
 13 14  1  0  0  0  0
 13 18  2  0  0  0  0
 13 24  1  0  0  0  0
 14 15  2  0  0  0  0
 14 25  1  0  0  0  0
 15 16  1  0  0  0  0
 15 26  1  0  0  0  0
 16 17  2  0  0  0  0
 17 18  1  0  0  0  0
 17 27  1  0  0  0  0
 18 28  1  0  0  0  0
 19 29  1  0  0  0  0
 19 30  1  0  0  0  0
M  END
$$$$
