14
  PyMOL2.6          3D                             0

 28 30  0  0  0  0  0  0  0  0999 V2000
   49.7962   43.2134   63.3971 N   0  0  0  0  0  0  0  0  0  0  0  0
   48.9312   43.3014   62.6326 C   0  0  0  0  0  0  0  0  0  0  0  0
   47.8443   43.4283   61.6763 C   0  0  0  0  0  0  0  0  0  0  0  0
   47.2970   44.7035   61.4386 C   0  0  0  0  0  0  0  0  0  0  0  0
   46.2252   44.8480   60.5453 C   0  0  0  0  0  0  0  0  0  0  0  0
   45.5323   46.4056   60.2710 Cl  0  0  0  0  0  0  0  0  0  0  0  0
   45.7099   43.7221   59.8782 C   0  0  0  0  0  0  0  0  0  0  0  0
   44.6727   43.9019   59.0319 F   0  0  0  0  0  0  0  0  0  0  0  0
   46.2489   42.4275   60.0903 C   0  0  0  0  0  0  0  0  0  0  0  0
   45.6827   41.2484   59.3900 C   0  0  0  0  0  0  0  0  0  0  0  0
   45.2559   41.2832   58.0473 C   0  0  0  0  0  0  0  0  0  0  0  0
   44.7080   40.1036   57.4963 C   0  0  0  0  0  0  0  0  0  0  0  0
   44.3359   40.0532   56.1285 N   0  0  0  0  0  0  0  0  0  0  0  0
   44.6577   41.0527   55.2753 N   0  0  0  0  0  0  0  0  0  0  0  0
   44.1822   40.6814   54.1002 C   0  0  0  0  0  0  0  0  0  0  0  0
   43.5270   39.4235   54.1601 C   0  0  0  0  0  0  0  0  0  0  0  0
   43.6640   39.0437   55.4657 C   0  0  0  0  0  0  0  0  0  0  0  0
   44.5644   38.9993   58.2538 N   0  0  0  0  0  0  0  0  0  0  0  0
   44.9792   39.0643   59.5153 C   0  0  0  0  0  0  0  0  0  0  0  0
   45.5534   40.1116   60.1094 N   0  0  0  0  0  0  0  0  0  0  0  0
   47.3283   42.2991   60.9993 C   0  0  0  0  0  0  0  0  0  0  0  0
   47.6838   45.5738   61.9508 H   0  0  0  0  0  0  0  0  0  0  0  0
   45.3603   42.1796   57.4553 H   0  0  0  0  0  0  0  0  0  0  0  0
   44.3232   41.3312   53.2480 H   0  0  0  0  0  0  0  0  0  0  0  0
   43.0556   38.8704   53.3607 H   0  0  0  0  0  0  0  0  0  0  0  0
   43.3402   38.1464   55.9746 H   0  0  0  0  0  0  0  0  0  0  0  0
   44.8710   38.1686   60.1089 H   0  0  0  0  0  0  0  0  0  0  0  0
   47.7534   41.3210   61.1848 H   0  0  0  0  0  0  0  0  0  0  0  0
  1  2  3  0  0  0  0
  2  3  1  0  0  0  0
  3  4  1  0  0  0  0
  3 21  2  0  0  0  0
  4  5  2  0  0  0  0
  4 22  1  0  0  0  0
  5  6  1  0  0  0  0
  5  7  1  0  0  0  0
  7  8  1  0  0  0  0
  7  9  2  0  0  0  0
  9 10  1  0  0  0  0
  9 21  1  0  0  0  0
 10 11  1  0  0  0  0
 10 20  2  0  0  0  0
 11 12  2  0  0  0  0
 11 23  1  0  0  0  0
 12 13  1  0  0  0  0
 12 18  1  0  0  0  0
 13 14  1  0  0  0  0
 13 17  1  0  0  0  0
 14 15  2  0  0  0  0
 15 16  1  0  0  0  0
 15 24  1  0  0  0  0
 16 17  2  0  0  0  0
 16 25  1  0  0  0  0
 17 26  1  0  0  0  0
 18 19  2  0  0  0  0
 19 20  1  0  0  0  0
 19 27  1  0  0  0  0
 21 28  1  0  0  0  0
M  END
$$$$
