16
  PyMOL2.6          3D                             0

 29 31  0  0  0  0  0  0  0  0999 V2000
   49.7996   43.2134   63.3977 N   0  0  0  0  0  0  0  0  0  0  0  0
   48.9374   43.3390   62.6353 C   0  0  0  0  0  0  0  0  0  0  0  0
   47.8538   43.4990   61.6803 C   0  0  0  0  0  0  0  0  0  0  0  0
   47.3076   44.7748   61.4422 C   0  0  0  0  0  0  0  0  0  0  0  0
   46.2344   44.9185   60.5464 C   0  0  0  0  0  0  0  0  0  0  0  0
   45.5459   46.4777   60.2722 Cl  0  0  0  0  0  0  0  0  0  0  0  0
   45.7122   43.7916   59.8817 C   0  0  0  0  0  0  0  0  0  0  0  0
   44.6740   43.9654   59.0330 F   0  0  0  0  0  0  0  0  0  0  0  0
   46.2512   42.4989   60.1026 C   0  0  0  0  0  0  0  0  0  0  0  0
   45.6916   41.2936   59.4496 C   0  0  0  0  0  0  0  0  0  0  0  0
   45.2316   41.2892   58.1140 C   0  0  0  0  0  0  0  0  0  0  0  0
   44.6951   40.1051   57.5505 C   0  0  0  0  0  0  0  0  0  0  0  0
   44.3222   40.0614   56.1824 N   0  0  0  0  0  0  0  0  0  0  0  0
   44.6571   41.0536   55.3266 N   0  0  0  0  0  0  0  0  0  0  0  0
   44.1823   40.6806   54.1511 C   0  0  0  0  0  0  0  0  0  0  0  0
   43.5200   39.4271   54.2118 C   0  0  0  0  0  0  0  0  0  0  0  0
   43.6449   39.0546   55.5196 C   0  0  0  0  0  0  0  0  0  0  0  0
   44.5575   38.9747   58.2729 N   0  0  0  0  0  0  0  0  0  0  0  0
   44.9775   38.9723   59.5496 C   0  0  0  0  0  0  0  0  0  0  0  0
   45.5819   40.0815   60.1628 C   0  0  0  0  0  0  0  0  0  0  0  0
   47.3355   42.3756   61.0039 C   0  0  0  0  0  0  0  0  0  0  0  0
   47.6955   45.6448   61.9537 H   0  0  0  0  0  0  0  0  0  0  0  0
   45.3126   42.1844   57.5162 H   0  0  0  0  0  0  0  0  0  0  0  0
   44.3313   41.3257   53.2969 H   0  0  0  0  0  0  0  0  0  0  0  0
   43.0493   38.8737   53.4124 H   0  0  0  0  0  0  0  0  0  0  0  0
   43.3103   38.1610   56.0283 H   0  0  0  0  0  0  0  0  0  0  0  0
   44.8545   38.0492   60.0968 H   0  0  0  0  0  0  0  0  0  0  0  0
   45.9102   40.0031   61.1889 H   0  0  0  0  0  0  0  0  0  0  0  0
   47.7703   41.4020   61.1888 H   0  0  0  0  0  0  0  0  0  0  0  0
  1  2  3  0  0  0  0
  2  3  1  0  0  0  0
  3  4  2  0  0  0  0
  3 21  1  0  0  0  0
  4  5  1  0  0  0  0
  4 22  1  0  0  0  0
  5  6  1  0  0  0  0
  5  7  2  0  0  0  0
  7  8  1  0  0  0  0
  7  9  1  0  0  0  0
  9 10  1  0  0  0  0
  9 21  2  0  0  0  0
 10 11  2  0  0  0  0
 10 20  1  0  0  0  0
 11 12  1  0  0  0  0
 11 23  1  0  0  0  0
 12 13  1  0  0  0  0
 12 18  2  0  0  0  0
 13 14  1  0  0  0  0
 13 17  1  0  0  0  0
 14 15  2  0  0  0  0
 15 16  1  0  0  0  0
 15 24  1  0  0  0  0
 16 17  2  0  0  0  0
 16 25  1  0  0  0  0
 17 26  1  0  0  0  0
 18 19  1  0  0  0  0
 19 20  2  0  0  0  0
 19 27  1  0  0  0  0
 20 28  1  0  0  0  0
 21 29  1  0  0  0  0
M  END
$$$$
