1a - preprocessed
  PyMOL2.4          3D                             0

 57 60  0  0  0  0  0  0  0  0999 V2000
   44.4650   62.0560   65.5110 N   0  3  0  0  0  0  0  0  0  0  0  0
   44.5230   61.0370   64.6590 C   0  0  0  0  0  0  0  0  0  0  0  0
   44.5550   59.5140   65.4850 S   0  0  0  0  0  0  0  0  0  0  0  0
   44.4940   60.3710   67.0270 C   0  0  0  0  0  0  0  0  0  0  0  0
   44.4990   61.7400   66.8580 C   0  0  0  0  0  0  0  0  0  0  0  0
   44.5410   61.4300   63.3850 N   0  0  0  0  0  0  0  0  0  0  0  0
   44.1820   62.8460   63.3750 C   0  0  0  0  0  0  0  0  0  0  0  0
   44.5030   63.3190   64.8000 C   0  0  0  0  0  0  0  0  0  0  0  0
   44.6530   62.7780   67.9500 C   0  0  0  0  0  0  0  0  0  0  0  0
   46.3780   63.3290   68.0170 S   0  0  0  0  0  0  0  0  0  0  0  0
   47.2710   61.8620   68.5290 C   0  0  0  0  0  0  0  0  0  0  0  0
   48.4830   61.6040   68.0170 N   0  0  0  0  0  0  0  0  0  0  0  0
   46.6760   61.1450   69.5160 N   0  3  0  0  0  0  0  0  0  0  0  0
   47.1120   59.8870   70.1550 C   0  0  0  0  0  0  0  0  0  0  0  0
   49.0180   61.8660   66.6660 C   0  0  0  0  0  0  0  0  0  0  0  0
   48.0080   61.5220   65.5560 C   0  0  0  0  0  0  0  0  0  0  0  0
   48.6160   61.6970   64.1570 C   0  0  0  0  0  0  0  0  0  0  0  0
   49.2210   63.1010   63.9750 C   0  0  0  0  0  0  0  0  0  0  0  0
   50.2420   63.4230   65.0820 C   0  0  0  0  0  0  0  0  0  0  0  0
   49.6370   63.2640   66.4940 C   0  0  0  0  0  0  0  0  0  0  0  0
   47.3960   58.7530   69.1480 C   0  0  0  0  0  0  0  0  0  0  0  0
   47.8370   57.4570   69.8610 C   0  0  0  0  0  0  0  0  0  0  0  0
   49.0190   57.7020   70.8210 C   0  0  0  0  0  0  0  0  0  0  0  0
   48.6910   58.8180   71.8280 C   0  0  0  0  0  0  0  0  0  0  0  0
   48.2870   60.1220   71.1140 C   0  0  0  0  0  0  0  0  0  0  0  0
   44.4740   59.8090   67.9420 H   0  0  0  0  0  0  0  0  0  0  0  0
   43.1020   62.9600   63.1470 H   0  0  0  0  0  0  0  0  0  0  0  0
   44.7590   63.3850   62.6220 H   0  0  0  0  0  0  0  0  0  0  0  0
   43.7510   63.9960   65.2020 H   0  0  0  0  0  0  0  0  0  0  0  0
   45.5020   63.7750   64.8840 H   0  0  0  0  0  0  0  0  0  0  0  0
   44.3510   62.3730   68.9170 H   0  0  0  0  0  0  0  0  0  0  0  0
   44.0030   63.6350   67.7520 H   0  0  0  0  0  0  0  0  0  0  0  0
   46.2700   59.5470   70.7500 H   0  0  0  0  0  0  0  0  0  0  0  0
   49.8260   61.1480   66.5350 H   0  0  0  0  0  0  0  0  0  0  0  0
   47.6270   60.5100   65.6720 H   0  0  0  0  0  0  0  0  0  0  0  0
   47.1480   62.1880   65.6150 H   0  0  0  0  0  0  0  0  0  0  0  0
   49.3820   60.9420   63.9940 H   0  0  0  0  0  0  0  0  0  0  0  0
   47.8520   61.5310   63.3940 H   0  0  0  0  0  0  0  0  0  0  0  0
   49.7010   63.1700   62.9940 H   0  0  0  0  0  0  0  0  0  0  0  0
   48.4320   63.8470   63.9830 H   0  0  0  0  0  0  0  0  0  0  0  0
   51.1080   62.7600   64.9830 H   0  0  0  0  0  0  0  0  0  0  0  0
   50.6180   64.4310   64.9560 H   0  0  0  0  0  0  0  0  0  0  0  0
   48.8840   64.0350   66.6500 H   0  0  0  0  0  0  0  0  0  0  0  0
   50.4100   63.4210   67.2440 H   0  0  0  0  0  0  0  0  0  0  0  0
   48.1920   59.0330   68.4510 H   0  0  0  0  0  0  0  0  0  0  0  0
   46.5220   58.5420   68.5360 H   0  0  0  0  0  0  0  0  0  0  0  0
   48.1160   56.6950   69.1300 H   0  0  0  0  0  0  0  0  0  0  0  0
   46.9970   57.0460   70.4250 H   0  0  0  0  0  0  0  0  0  0  0  0
   49.9010   57.9740   70.2520 H   0  0  0  0  0  0  0  0  0  0  0  0
   49.2620   56.7800   71.3550 H   0  0  0  0  0  0  0  0  0  0  0  0
   49.5450   59.0000   72.4780 H   0  0  0  0  0  0  0  0  0  0  0  0
   47.8740   58.4950   72.4780 H   0  0  0  0  0  0  0  0  0  0  0  0
   48.0260   60.8810   71.8510 H   0  0  0  0  0  0  0  0  0  0  0  0
   49.1530   60.5030   70.5650 H   0  0  0  0  0  0  0  0  0  0  0  0
   44.3350   60.8000   62.5970 H   0  0  0  0  0  0  0  0  0  0  0  0
   49.0720   60.9610   68.5330 H   0  0  0  0  0  0  0  0  0  0  0  0
   45.8020   61.4890   69.8680 H   0  0  0  0  0  0  0  0  0  0  0  0
  1  2  2  0  0  0  0
  1  5  1  0  0  0  0
  1  8  1  0  0  0  0
  2  3  1  0  0  0  0
  2  6  1  0  0  0  0
  3  4  1  0  0  0  0
  4  5  2  0  0  0  0
  4 26  1  0  0  0  0
  5  9  1  0  0  0  0
  6  7  1  0  0  0  0
  6 55  1  0  0  0  0
  7  8  1  0  0  0  0
  7 27  1  0  0  0  0
  7 28  1  0  0  0  0
  8 29  1  0  0  0  0
  8 30  1  0  0  0  0
  9 10  1  0  0  0  0
  9 31  1  0  0  0  0
  9 32  1  0  0  0  0
 10 11  1  0  0  0  0
 11 12  1  0  0  0  0
 11 13  2  0  0  0  0
 12 15  1  0  0  0  0
 12 56  1  0  0  0  0
 13 14  1  0  0  0  0
 13 57  1  0  0  0  0
 14 21  1  0  0  0  0
 14 25  1  0  0  0  0
 14 33  1  0  0  0  0
 15 16  1  0  0  0  0
 15 20  1  0  0  0  0
 15 34  1  0  0  0  0
 16 17  1  0  0  0  0
 16 35  1  0  0  0  0
 16 36  1  0  0  0  0
 17 18  1  0  0  0  0
 17 37  1  0  0  0  0
 17 38  1  0  0  0  0
 18 19  1  0  0  0  0
 18 39  1  0  0  0  0
 18 40  1  0  0  0  0
 19 20  1  0  0  0  0
 19 41  1  0  0  0  0
 19 42  1  0  0  0  0
 20 43  1  0  0  0  0
 20 44  1  0  0  0  0
 21 22  1  0  0  0  0
 21 45  1  0  0  0  0
 21 46  1  0  0  0  0
 22 23  1  0  0  0  0
 22 47  1  0  0  0  0
 22 48  1  0  0  0  0
 23 24  1  0  0  0  0
 23 49  1  0  0  0  0
 23 50  1  0  0  0  0
 24 25  1  0  0  0  0
 24 51  1  0  0  0  0
 24 52  1  0  0  0  0
 25 53  1  0  0  0  0
 25 54  1  0  0  0  0
M  END
$$$$
