1h - preprocessed
  PyMOL2.4          3D                             0

 63 66  0  0  0  0  0  0  0  0999 V2000
   44.4710   62.0590   65.5190 N   0  3  0  0  0  0  0  0  0  0  0  0
   44.5110   61.0440   64.6580 C   0  0  0  0  0  0  0  0  0  0  0  0
   44.5520   59.5120   65.4870 S   0  0  0  0  0  0  0  0  0  0  0  0
   44.4840   60.3710   67.0200 C   0  0  0  0  0  0  0  0  0  0  0  0
   44.5100   61.7480   66.8620 C   0  0  0  0  0  0  0  0  0  0  0  0
   44.5330   61.4330   63.3800 N   0  0  0  0  0  0  0  0  0  0  0  0
   44.1710   62.8460   63.3840 C   0  0  0  0  0  0  0  0  0  0  0  0
   44.5030   63.3210   64.8070 C   0  0  0  0  0  0  0  0  0  0  0  0
   44.6440   62.7820   67.9570 C   0  0  0  0  0  0  0  0  0  0  0  0
   46.3860   63.3290   68.0080 S   0  0  0  0  0  0  0  0  0  0  0  0
   47.2750   61.8610   68.5340 C   0  0  0  0  0  0  0  0  0  0  0  0
   48.4860   61.6040   68.0180 N   0  0  0  0  0  0  0  0  0  0  0  0
   46.6750   61.1530   69.5110 N   0  3  0  0  0  0  0  0  0  0  0  0
   47.1170   59.8820   70.1290 C   0  0  0  0  0  0  0  0  0  0  0  0
   49.0130   61.8750   66.6650 C   0  0  0  0  0  0  0  0  0  0  0  0
   48.0030   61.5310   65.5570 C   0  0  0  0  0  0  0  0  0  0  0  0
   48.6170   61.6930   64.1600 C   0  0  0  0  0  0  0  0  0  0  0  0
   49.2380   63.0950   63.9730 C   0  0  0  0  0  0  0  0  0  0  0  0
   50.2460   63.4250   65.0850 C   0  0  0  0  0  0  0  0  0  0  0  0
   49.6370   63.2660   66.4890 C   0  0  0  0  0  0  0  0  0  0  0  0
   47.3400   58.8010   69.0430 C   0  0  0  0  0  0  0  0  0  0  0  0
   46.7030   57.4260   69.3370 C   0  0  0  0  0  0  0  0  0  0  0  0
   46.8440   56.8850   70.7730 C   0  0  0  0  0  0  0  0  0  0  0  0
   48.2660   56.5430   71.2510 C   0  0  0  0  0  0  0  0  0  0  0  0
   49.2560   57.7140   71.3690 C   0  0  0  0  0  0  0  0  0  0  0  0
   48.7010   58.9960   72.0300 C   0  0  0  0  0  0  0  0  0  0  0  0
   48.3420   60.1220   71.0380 C   0  0  0  0  0  0  0  0  0  0  0  0
   44.4610   59.8110   67.9330 H   0  0  0  0  0  0  0  0  0  0  0  0
   43.1080   62.9380   63.1740 H   0  0  0  0  0  0  0  0  0  0  0  0
   44.7220   63.3990   62.6240 H   0  0  0  0  0  0  0  0  0  0  0  0
   43.7590   64.0010   65.2200 H   0  0  0  0  0  0  0  0  0  0  0  0
   45.4970   63.7760   64.8810 H   0  0  0  0  0  0  0  0  0  0  0  0
   44.3320   62.3890   68.9150 H   0  0  0  0  0  0  0  0  0  0  0  0
   44.0180   63.6500   67.7290 H   0  0  0  0  0  0  0  0  0  0  0  0
   46.2760   59.5800   70.7570 H   0  0  0  0  0  0  0  0  0  0  0  0
   49.8270   61.1630   66.5440 H   0  0  0  0  0  0  0  0  0  0  0  0
   47.1430   62.1910   65.6180 H   0  0  0  0  0  0  0  0  0  0  0  0
   47.6310   60.5120   65.6790 H   0  0  0  0  0  0  0  0  0  0  0  0
   47.8630   61.5260   63.3910 H   0  0  0  0  0  0  0  0  0  0  0  0
   49.3900   60.9350   64.0100 H   0  0  0  0  0  0  0  0  0  0  0  0
   48.4500   63.8470   63.9620 H   0  0  0  0  0  0  0  0  0  0  0  0
   49.7240   63.1500   62.9980 H   0  0  0  0  0  0  0  0  0  0  0  0
   50.6260   64.4360   64.9520 H   0  0  0  0  0  0  0  0  0  0  0  0
   51.1110   62.7620   64.9940 H   0  0  0  0  0  0  0  0  0  0  0  0
   50.4070   63.4300   67.2440 H   0  0  0  0  0  0  0  0  0  0  0  0
   48.8850   64.0420   66.6430 H   0  0  0  0  0  0  0  0  0  0  0  0
   46.9340   59.1390   68.0890 H   0  0  0  0  0  0  0  0  0  0  0  0
   48.4030   58.6790   68.8300 H   0  0  0  0  0  0  0  0  0  0  0  0
   45.6350   57.4980   69.1220 H   0  0  0  0  0  0  0  0  0  0  0  0
   47.0980   56.6880   68.6320 H   0  0  0  0  0  0  0  0  0  0  0  0
   46.3600   57.5500   71.4890 H   0  0  0  0  0  0  0  0  0  0  0  0
   46.2610   55.9640   70.8320 H   0  0  0  0  0  0  0  0  0  0  0  0
   48.1770   56.0830   72.2340 H   0  0  0  0  0  0  0  0  0  0  0  0
   48.6980   55.7760   70.6070 H   0  0  0  0  0  0  0  0  0  0  0  0
   50.0800   57.3490   71.9760 H   0  0  0  0  0  0  0  0  0  0  0  0
   49.7110   57.9450   70.4040 H   0  0  0  0  0  0  0  0  0  0  0  0
   47.8610   58.7700   72.6900 H   0  0  0  0  0  0  0  0  0  0  0  0
   49.4760   59.3820   72.6890 H   0  0  0  0  0  0  0  0  0  0  0  0
   49.2230   60.3430   70.4360 H   0  0  0  0  0  0  0  0  0  0  0  0
   48.1710   61.0260   71.6160 H   0  0  0  0  0  0  0  0  0  0  0  0
   44.2970   60.8040   62.6050 H   0  0  0  0  0  0  0  0  0  0  0  0
   49.1300   61.0550   68.5800 H   0  0  0  0  0  0  0  0  0  0  0  0
   45.7960   61.4830   69.8790 H   0  0  0  0  0  0  0  0  0  0  0  0
  1  2  2  0  0  0  0
  1  5  1  0  0  0  0
  1  8  1  0  0  0  0
  2  3  1  0  0  0  0
  2  6  1  0  0  0  0
  3  4  1  0  0  0  0
  4  5  2  0  0  0  0
  4 28  1  0  0  0  0
  5  9  1  0  0  0  0
  6  7  1  0  0  0  0
  6 61  1  0  0  0  0
  7  8  1  0  0  0  0
  7 29  1  0  0  0  0
  7 30  1  0  0  0  0
  8 31  1  0  0  0  0
  8 32  1  0  0  0  0
  9 10  1  0  0  0  0
  9 33  1  0  0  0  0
  9 34  1  0  0  0  0
 10 11  1  0  0  0  0
 11 12  1  0  0  0  0
 11 13  2  0  0  0  0
 12 15  1  0  0  0  0
 12 62  1  0  0  0  0
 13 14  1  0  0  0  0
 13 63  1  0  0  0  0
 14 21  1  0  0  0  0
 14 27  1  0  0  0  0
 14 35  1  0  0  0  0
 15 16  1  0  0  0  0
 15 20  1  0  0  0  0
 15 36  1  0  0  0  0
 16 17  1  0  0  0  0
 16 37  1  0  0  0  0
 16 38  1  0  0  0  0
 17 18  1  0  0  0  0
 17 39  1  0  0  0  0
 17 40  1  0  0  0  0
 18 19  1  0  0  0  0
 18 41  1  0  0  0  0
 18 42  1  0  0  0  0
 19 20  1  0  0  0  0
 19 43  1  0  0  0  0
 19 44  1  0  0  0  0
 20 45  1  0  0  0  0
 20 46  1  0  0  0  0
 21 22  1  0  0  0  0
 21 47  1  0  0  0  0
 21 48  1  0  0  0  0
 22 23  1  0  0  0  0
 22 49  1  0  0  0  0
 22 50  1  0  0  0  0
 23 24  1  0  0  0  0
 23 51  1  0  0  0  0
 23 52  1  0  0  0  0
 24 25  1  0  0  0  0
 24 53  1  0  0  0  0
 24 54  1  0  0  0  0
 25 26  1  0  0  0  0
 25 55  1  0  0  0  0
 25 56  1  0  0  0  0
 26 27  1  0  0  0  0
 26 57  1  0  0  0  0
 26 58  1  0  0  0  0
 27 59  1  0  0  0  0
 27 60  1  0  0  0  0
M  END
$$$$
