1j - preprocessed
  PyMOL2.4          3D                             0

 59 61  0  0  0  0  0  0  0  0999 V2000
   44.4770   62.0590   65.5140 N   0  3  0  0  0  0  0  0  0  0  0  0
   44.5060   61.0420   64.6630 C   0  0  0  0  0  0  0  0  0  0  0  0
   44.5540   59.5120   65.4820 S   0  0  0  0  0  0  0  0  0  0  0  0
   44.4960   60.3620   67.0280 C   0  0  0  0  0  0  0  0  0  0  0  0
   44.5120   61.7490   66.8640 C   0  0  0  0  0  0  0  0  0  0  0  0
   44.5270   61.4390   63.3850 N   0  0  0  0  0  0  0  0  0  0  0  0
   44.1850   62.8580   63.3770 C   0  0  0  0  0  0  0  0  0  0  0  0
   44.5050   63.3270   64.8060 C   0  0  0  0  0  0  0  0  0  0  0  0
   44.6490   62.7860   67.9470 C   0  0  0  0  0  0  0  0  0  0  0  0
   46.3790   63.3400   68.0100 S   0  0  0  0  0  0  0  0  0  0  0  0
   47.2770   61.8770   68.5290 C   0  0  0  0  0  0  0  0  0  0  0  0
   48.4840   61.6150   68.0060 N   0  0  0  0  0  0  0  0  0  0  0  0
   46.6920   61.1600   69.5000 N   0  3  0  0  0  0  0  0  0  0  0  0
   47.1280   59.8960   70.1210 C   0  0  0  0  0  0  0  0  0  0  0  0
   49.0080   61.8690   66.6420 C   0  0  0  0  0  0  0  0  0  0  0  0
   47.9970   61.5180   65.5390 C   0  0  0  0  0  0  0  0  0  0  0  0
   48.6090   61.6870   64.1410 C   0  0  0  0  0  0  0  0  0  0  0  0
   49.2130   63.0910   63.9570 C   0  0  0  0  0  0  0  0  0  0  0  0
   50.2320   63.4190   65.0620 C   0  0  0  0  0  0  0  0  0  0  0  0
   49.6300   63.2680   66.4740 C   0  0  0  0  0  0  0  0  0  0  0  0
   48.6090   59.8630   70.5130 C   0  0  0  0  0  0  0  0  0  0  0  0
   49.0290   58.5330   71.1570 C   0  0  0  0  0  0  0  0  0  0  0  0
   48.7010   57.3090   70.2870 C   0  0  0  0  0  0  0  0  0  0  0  0
   48.9810   55.9760   71.0020 C   0  0  0  0  0  0  0  0  0  0  0  0
   48.4430   54.7700   70.2210 C   0  0  0  0  0  0  0  0  0  0  0  0
   44.4940   59.7990   67.9400 H   0  0  0  0  0  0  0  0  0  0  0  0
   43.1250   62.9800   63.1410 H   0  0  0  0  0  0  0  0  0  0  0  0
   44.7630   63.4020   62.6240 H   0  0  0  0  0  0  0  0  0  0  0  0
   43.7560   64.0090   65.2080 H   0  0  0  0  0  0  0  0  0  0  0  0
   45.4980   63.7660   64.8930 H   0  0  0  0  0  0  0  0  0  0  0  0
   44.3520   62.3890   68.9140 H   0  0  0  0  0  0  0  0  0  0  0  0
   44.0100   63.6460   67.7320 H   0  0  0  0  0  0  0  0  0  0  0  0
   46.8960   59.0810   69.4260 H   0  0  0  0  0  0  0  0  0  0  0  0
   46.5060   59.7340   71.0100 H   0  0  0  0  0  0  0  0  0  0  0  0
   49.8120   61.1430   66.5000 H   0  0  0  0  0  0  0  0  0  0  0  0
   47.6360   60.4930   65.6650 H   0  0  0  0  0  0  0  0  0  0  0  0
   47.1290   62.1640   65.6090 H   0  0  0  0  0  0  0  0  0  0  0  0
   49.3760   60.9290   63.9810 H   0  0  0  0  0  0  0  0  0  0  0  0
   47.8460   61.5190   63.3820 H   0  0  0  0  0  0  0  0  0  0  0  0
   49.6880   63.1610   62.9780 H   0  0  0  0  0  0  0  0  0  0  0  0
   48.4160   63.8350   63.9630 H   0  0  0  0  0  0  0  0  0  0  0  0
   51.0960   62.7600   64.9650 H   0  0  0  0  0  0  0  0  0  0  0  0
   50.6070   64.4360   64.9320 H   0  0  0  0  0  0  0  0  0  0  0  0
   48.8770   64.0380   66.6380 H   0  0  0  0  0  0  0  0  0  0  0  0
   50.4060   63.4190   67.2230 H   0  0  0  0  0  0  0  0  0  0  0  0
   48.8290   60.6770   71.2010 H   0  0  0  0  0  0  0  0  0  0  0  0
   49.2370   60.0330   69.6420 H   0  0  0  0  0  0  0  0  0  0  0  0
   48.5510   58.4240   72.1300 H   0  0  0  0  0  0  0  0  0  0  0  0
   50.0950   58.5590   71.3460 H   0  0  0  0  0  0  0  0  0  0  0  0
   49.2730   57.3460   69.3600 H   0  0  0  0  0  0  0  0  0  0  0  0
   47.6520   57.3460   69.9980 H   0  0  0  0  0  0  0  0  0  0  0  0
   48.5150   55.9930   71.9860 H   0  0  0  0  0  0  0  0  0  0  0  0
   50.0500   55.8560   71.1790 H   0  0  0  0  0  0  0  0  0  0  0  0
   48.6390   53.8380   70.7500 H   0  0  0  0  0  0  0  0  0  0  0  0
   48.8990   54.6980   69.2330 H   0  0  0  0  0  0  0  0  0  0  0  0
   47.3650   54.8480   70.0820 H   0  0  0  0  0  0  0  0  0  0  0  0
   44.3710   60.8250   62.5770 H   0  0  0  0  0  0  0  0  0  0  0  0
   49.0920   61.0050   68.5410 H   0  0  0  0  0  0  0  0  0  0  0  0
   45.8550   61.5400   69.9090 H   0  0  0  0  0  0  0  0  0  0  0  0
  1  2  2  0  0  0  0
  1  5  1  0  0  0  0
  1  8  1  0  0  0  0
  2  3  1  0  0  0  0
  2  6  1  0  0  0  0
  3  4  1  0  0  0  0
  4  5  2  0  0  0  0
  4 26  1  0  0  0  0
  5  9  1  0  0  0  0
  6  7  1  0  0  0  0
  6 57  1  0  0  0  0
  7  8  1  0  0  0  0
  7 27  1  0  0  0  0
  7 28  1  0  0  0  0
  8 29  1  0  0  0  0
  8 30  1  0  0  0  0
  9 10  1  0  0  0  0
  9 31  1  0  0  0  0
  9 32  1  0  0  0  0
 10 11  1  0  0  0  0
 11 12  1  0  0  0  0
 11 13  2  0  0  0  0
 12 15  1  0  0  0  0
 12 58  1  0  0  0  0
 13 14  1  0  0  0  0
 13 59  1  0  0  0  0
 14 21  1  0  0  0  0
 14 33  1  0  0  0  0
 14 34  1  0  0  0  0
 15 16  1  0  0  0  0
 15 20  1  0  0  0  0
 15 35  1  0  0  0  0
 16 17  1  0  0  0  0
 16 36  1  0  0  0  0
 16 37  1  0  0  0  0
 17 18  1  0  0  0  0
 17 38  1  0  0  0  0
 17 39  1  0  0  0  0
 18 19  1  0  0  0  0
 18 40  1  0  0  0  0
 18 41  1  0  0  0  0
 19 20  1  0  0  0  0
 19 42  1  0  0  0  0
 19 43  1  0  0  0  0
 20 44  1  0  0  0  0
 20 45  1  0  0  0  0
 21 22  1  0  0  0  0
 21 46  1  0  0  0  0
 21 47  1  0  0  0  0
 22 23  1  0  0  0  0
 22 48  1  0  0  0  0
 22 49  1  0  0  0  0
 23 24  1  0  0  0  0
 23 50  1  0  0  0  0
 23 51  1  0  0  0  0
 24 25  1  0  0  0  0
 24 52  1  0  0  0  0
 24 53  1  0  0  0  0
 25 54  1  0  0  0  0
 25 55  1  0  0  0  0
 25 56  1  0  0  0  0
M  END
$$$$
