1t - preprocessed
  PyMOL2.4          3D                             0

 63 66  0  0  0  0  0  0  0  0999 V2000
   44.4740   62.0570   65.5130 N   0  3  0  0  0  0  0  0  0  0  0  0
   44.5250   61.0450   64.6590 C   0  0  0  0  0  0  0  0  0  0  0  0
   44.6080   59.5030   65.4930 S   0  0  0  0  0  0  0  0  0  0  0  0
   44.5030   60.3630   67.0210 C   0  0  0  0  0  0  0  0  0  0  0  0
   44.5090   61.7450   66.8640 C   0  0  0  0  0  0  0  0  0  0  0  0
   44.5460   61.4230   63.3810 N   0  0  0  0  0  0  0  0  0  0  0  0
   44.1620   62.8420   63.3750 C   0  0  0  0  0  0  0  0  0  0  0  0
   44.4980   63.3160   64.8060 C   0  0  0  0  0  0  0  0  0  0  0  0
   44.6420   62.7680   67.9510 C   0  0  0  0  0  0  0  0  0  0  0  0
   46.3800   63.3230   68.0080 S   0  0  0  0  0  0  0  0  0  0  0  0
   47.2790   61.8660   68.5450 C   0  0  0  0  0  0  0  0  0  0  0  0
   48.4900   61.6030   68.0260 N   0  0  0  0  0  0  0  0  0  0  0  0
   46.6800   61.1530   69.5100 N   0  3  0  0  0  0  0  0  0  0  0  0
   47.1100   59.8920   70.1550 C   0  0  0  0  0  0  0  0  0  0  0  0
   49.0220   61.8690   66.6700 C   0  0  0  0  0  0  0  0  0  0  0  0
   48.0080   61.5210   65.5640 C   0  0  0  0  0  0  0  0  0  0  0  0
   48.6130   61.6900   64.1650 C   0  0  0  0  0  0  0  0  0  0  0  0
   49.2100   63.0930   63.9780 C   0  0  0  0  0  0  0  0  0  0  0  0
   50.2350   63.4210   65.0780 C   0  0  0  0  0  0  0  0  0  0  0  0
   49.6360   63.2670   66.4900 C   0  0  0  0  0  0  0  0  0  0  0  0
   47.4000   58.7520   69.1440 C   0  0  0  0  0  0  0  0  0  0  0  0
   47.8390   57.4570   69.8590 C   0  0  0  0  0  0  0  0  0  0  0  0
   49.0200   57.7030   70.8110 C   0  0  0  0  0  0  0  0  0  0  0  0
   48.6940   58.8110   71.8250 C   0  0  0  0  0  0  0  0  0  0  0  0
   48.2880   60.1190   71.1210 C   0  0  0  0  0  0  0  0  0  0  0  0
   44.9840   63.5980   62.3250 C   0  0  0  0  0  0  0  0  0  0  0  0
   42.6440   62.9590   63.1130 C   0  0  0  0  0  0  0  0  0  0  0  0
   44.4930   59.8120   67.9390 H   0  0  0  0  0  0  0  0  0  0  0  0
   43.7630   64.0010   65.2240 H   0  0  0  0  0  0  0  0  0  0  0  0
   45.4970   63.7610   64.8870 H   0  0  0  0  0  0  0  0  0  0  0  0
   44.3550   62.3720   68.9140 H   0  0  0  0  0  0  0  0  0  0  0  0
   44.0000   63.6330   67.7620 H   0  0  0  0  0  0  0  0  0  0  0  0
   46.2610   59.5530   70.7530 H   0  0  0  0  0  0  0  0  0  0  0  0
   49.8440   61.1610   66.5680 H   0  0  0  0  0  0  0  0  0  0  0  0
   47.1450   62.1760   65.6320 H   0  0  0  0  0  0  0  0  0  0  0  0
   47.6450   60.4990   65.6960 H   0  0  0  0  0  0  0  0  0  0  0  0
   47.8450   61.5170   63.4120 H   0  0  0  0  0  0  0  0  0  0  0  0
   49.3830   60.9350   64.0000 H   0  0  0  0  0  0  0  0  0  0  0  0
   48.4150   63.8370   63.9860 H   0  0  0  0  0  0  0  0  0  0  0  0
   49.6830   63.1630   62.9960 H   0  0  0  0  0  0  0  0  0  0  0  0
   50.6090   64.4380   64.9470 H   0  0  0  0  0  0  0  0  0  0  0  0
   51.1020   62.7660   64.9720 H   0  0  0  0  0  0  0  0  0  0  0  0
   50.4160   63.4290   67.2360 H   0  0  0  0  0  0  0  0  0  0  0  0
   48.8890   64.0440   66.6500 H   0  0  0  0  0  0  0  0  0  0  0  0
   46.5170   58.5460   68.5350 H   0  0  0  0  0  0  0  0  0  0  0  0
   48.1890   59.0410   68.4510 H   0  0  0  0  0  0  0  0  0  0  0  0
   46.9940   57.0530   70.4200 H   0  0  0  0  0  0  0  0  0  0  0  0
   48.1070   56.6970   69.1220 H   0  0  0  0  0  0  0  0  0  0  0  0
   49.2680   56.7850   71.3370 H   0  0  0  0  0  0  0  0  0  0  0  0
   49.9040   57.9790   70.2350 H   0  0  0  0  0  0  0  0  0  0  0  0
   47.8850   58.4880   72.4790 H   0  0  0  0  0  0  0  0  0  0  0  0
   49.5550   58.9960   72.4660 H   0  0  0  0  0  0  0  0  0  0  0  0
   49.1480   60.5100   70.5730 H   0  0  0  0  0  0  0  0  0  0  0  0
   48.0170   60.8750   71.8620 H   0  0  0  0  0  0  0  0  0  0  0  0
   44.6800   64.6410   62.2820 H   0  0  0  0  0  0  0  0  0  0  0  0
   46.0500   63.5700   62.5500 H   0  0  0  0  0  0  0  0  0  0  0  0
   44.8480   63.1700   61.3300 H   0  0  0  0  0  0  0  0  0  0  0  0
   42.3400   64.0030   63.0740 H   0  0  0  0  0  0  0  0  0  0  0  0
   42.3710   62.4910   62.1660 H   0  0  0  0  0  0  0  0  0  0  0  0
   42.0700   62.4730   63.9030 H   0  0  0  0  0  0  0  0  0  0  0  0
   44.3160   60.7920   62.6080 H   0  0  0  0  0  0  0  0  0  0  0  0
   49.0890   60.9840   68.5580 H   0  0  0  0  0  0  0  0  0  0  0  0
   45.8110   61.5090   69.8880 H   0  0  0  0  0  0  0  0  0  0  0  0
  1  2  2  0  0  0  0
  1  5  1  0  0  0  0
  1  8  1  0  0  0  0
  2  3  1  0  0  0  0
  2  6  1  0  0  0  0
  3  4  1  0  0  0  0
  4  5  2  0  0  0  0
  4 28  1  0  0  0  0
  5  9  1  0  0  0  0
  6  7  1  0  0  0  0
  6 61  1  0  0  0  0
  7  8  1  0  0  0  0
  7 26  1  0  0  0  0
  7 27  1  0  0  0  0
  8 29  1  0  0  0  0
  8 30  1  0  0  0  0
  9 10  1  0  0  0  0
  9 31  1  0  0  0  0
  9 32  1  0  0  0  0
 10 11  1  0  0  0  0
 11 12  1  0  0  0  0
 11 13  2  0  0  0  0
 12 15  1  0  0  0  0
 12 62  1  0  0  0  0
 13 14  1  0  0  0  0
 13 63  1  0  0  0  0
 14 21  1  0  0  0  0
 14 25  1  0  0  0  0
 14 33  1  0  0  0  0
 15 16  1  0  0  0  0
 15 20  1  0  0  0  0
 15 34  1  0  0  0  0
 16 17  1  0  0  0  0
 16 35  1  0  0  0  0
 16 36  1  0  0  0  0
 17 18  1  0  0  0  0
 17 37  1  0  0  0  0
 17 38  1  0  0  0  0
 18 19  1  0  0  0  0
 18 39  1  0  0  0  0
 18 40  1  0  0  0  0
 19 20  1  0  0  0  0
 19 41  1  0  0  0  0
 19 42  1  0  0  0  0
 20 43  1  0  0  0  0
 20 44  1  0  0  0  0
 21 22  1  0  0  0  0
 21 45  1  0  0  0  0
 21 46  1  0  0  0  0
 22 23  1  0  0  0  0
 22 47  1  0  0  0  0
 22 48  1  0  0  0  0
 23 24  1  0  0  0  0
 23 49  1  0  0  0  0
 23 50  1  0  0  0  0
 24 25  1  0  0  0  0
 24 51  1  0  0  0  0
 24 52  1  0  0  0  0
 25 53  1  0  0  0  0
 25 54  1  0  0  0  0
 26 55  1  0  0  0  0
 26 56  1  0  0  0  0
 26 57  1  0  0  0  0
 27 58  1  0  0  0  0
 27 59  1  0  0  0  0
 27 60  1  0  0  0  0
M  END
$$$$
